<?xml version='1.0' encoding='UTF-8'?>
<!--generated on 2020-03-04 18:25:00 by create_sumo_vtypes.py-->

<routes>
    <vType id="vType_0" minGap="2.00" speedFactor="normc(1.00,0.00)" vClass="passenger" carFollowModel="IDMM" tau="0.4"/>
    <vType id="DEFAULT_VEHTYPE" minGap="2.50" tau="1.0"  color="255,255,255" Class="passenger" accel="0.5" carFollowModel="EIDM" laneChangeModel="SL2015" sigmaerror="0.5" sigmagap="0.5" sigmaleader="0.10"/>
     <flow id="flow_0" begin="0.00" departLane="2" departSpeed="10" departPos="last" from="-35.0.00" to="-38.0.00"  end="4800.00" vehsPerHour="1500.00" type="DEFAULT_VEHTYPE"/>
     <flow id="flow_1" begin="0.00" departLane="3" departSpeed="11" departPos="last" from="-35.0.00" to="-38.0.00"  end="4800.00" vehsPerHour="1200.00" type="DEFAULT_VEHTYPE"/>
     <flow id="flow_2" begin="0.00" departEdge="35" departLane="4" departSpeed="5" departPos="last" from="-35.0.00" to="-38.0.00"  end="4800.00" vehsPerHour="3500.00" type="DEFAULT_VEHTYPE"/>
     <flow id="flow_3" begin="0.00" departEdge="35" departLane="5" departSpeed="13" departPos="base" from="-35.0.00" to="-38.0.00"  end="4800.00" vehsPerHour="1800.00" type="DEFAULT_VEHTYPE"/>
     <flow id="flow_4" begin="0.00" departEdge="35" departLane="6" departSpeed="13" departPos="base" from="-35.0.00" to="-38.0.00"  end="4800.00" vehsPerHour="1800.00" type="DEFAULT_VEHTYPE"/>
     <route id="route1" edges="-35.0.00 -36.0.00"/>
     <vehicle id="v1" color="150, 200, 30" route="route1" depart="0.00" departLane="5" departSpeed="16" departPos="base" arrivalLane="5" type="DEFAULT_VEHTYPE">
        <param key="has.ssm.device" value="true"/> 
        <param key="device.ssm.measures" value="TTC DRAC PET"/>
        <param key="device.ssm.thresholds" value="3.0 3.0 2.0"/> 
        <param key="device.ssm.range" value="50.0" />
        <param key="device.ssm.extratime" value="5.0" />
        <param key="device.ssm.file" value="ssm_v1.xml" />
        <param key="device.ssm.trajectories" value="true" />
        <param key="device.ssm.geo" value="false" />
        <param key="device.ssm.write-positions" value="true" />
        <param key="device.ssm.write-lane-positions" value="true" />
    </vehicle>
</routes>