<?xml version='1.0' encoding='UTF-8'?>
<configuration>
  <input>
        <net-file value="custom_single_town06_cosim.net.xml"/>
    <route-files value="custom_single_town06_cosim.rou.xml"/>
  </input>
  <num-clients value="1"/>
</configuration>
