<?xml version="1.0" encoding="UTF-8"?>

<!-- generated on 2023-10-05 16:17:26 by Eclipse SUMO netconvert Version 1.16.0
<configuration xmlns:xsi="http://www.w3.org/2001/XMLSchema-instance" xsi:noNamespaceSchemaLocation="http://sumo.dlr.de/xsd/netconvertConfiguration.xsd">

    <input>
        <opendrive-files value="Town06.xodr"/>
    </input>

    <output>
        <output-file value="C:\Apps\OpenCDA\opencda\assets\custom_single_town06_cosim\custom_single_town06_cosim.net.xml"/>
    </output>

    <processing>
        <offset.disable-normalization value="true"/>
    </processing>

    <tls_building>
        <tls.cycle.time value="20"/>
    </tls_building>

    <junctions>
        <no-turnarounds.except-deadend value="true"/>
    </junctions>

</configuration>
-->

<net version="1.16" junctionCornerDetail="5" rectangularLaneCut="true" limitTurnSpeed="5.50" xmlns:xsi="http://www.w3.org/2001/XMLSchema-instance" xsi:noNamespaceSchemaLocation="http://sumo.dlr.de/xsd/net_file.xsd">

    <location netOffset="0.00,0.00" convBoundary="-358.49,-404.45,659.44,143.63" origBoundary="0.000000,0.000000,0.000000,0.000000" projParameter="+proj=tmerc +lat_0=0 +lon_0=0 +k=1 +x_0=0 +y_0=0 +datum=WGS84 +units=m  +vunits=m +no_defs "/>

    <type id="bidirectional" priority="1" speed="1.39" disallow="pedestrian tram rail_urban rail rail_electric rail_fast ship" width="3.65"/>
    <type id="border" priority="0" speed="1.39" disallow="all" discard="1" width="0.10"/>
    <type id="driving" priority="1" speed="13.89" disallow="pedestrian tram rail_urban rail rail_electric rail_fast ship" width="3.65"/>
    <type id="entry" priority="1" speed="22.22" disallow="pedestrian tram rail_urban rail rail_electric rail_fast ship" width="3.65"/>
    <type id="exit" priority="1" speed="22.22" disallow="pedestrian tram rail_urban rail rail_electric rail_fast ship" width="3.65"/>
    <type id="median" priority="0" speed="1.39" disallow="all" discard="1" width="0.10"/>
    <type id="mwyEntry" priority="1" speed="22.22" allow="private emergency authority army vip passenger hov taxi bus coach delivery truck trailer motorcycle evehicle custom1 custom2" width="3.65"/>
    <type id="mwyExit" priority="1" speed="22.22" allow="private emergency authority army vip passenger hov taxi bus coach delivery truck trailer motorcycle evehicle custom1 custom2" width="3.65"/>
    <type id="none" priority="0" speed="1.39" disallow="all" discard="1" width="1.00"/>
    <type id="offRamp" priority="1" speed="22.22" allow="private emergency authority army vip passenger hov taxi bus coach delivery truck trailer motorcycle evehicle custom1 custom2" width="3.65"/>
    <type id="onRamp" priority="1" speed="22.22" allow="private emergency authority army vip passenger hov taxi bus coach delivery truck trailer motorcycle evehicle custom1 custom2" width="3.65"/>
    <type id="parking" priority="1" speed="1.39" disallow="pedestrian tram rail_urban rail rail_electric rail_fast ship" width="2.50"/>
    <type id="rail" priority="3" speed="33.33" allow="rail_urban rail rail_electric rail_fast" width="3.65"/>
    <type id="restricted" priority="0" speed="13.89" disallow="all" width="3.65"/>
    <type id="roadWorks" priority="0" speed="1.39" allow="authority" width="3.65"/>
    <type id="shoulder" priority="0" speed="1.39" disallow="all" discard="1" width="1.00"/>
    <type id="special1" priority="1" speed="22.22" allow="custom1" discard="1" width="3.65"/>
    <type id="special2" priority="1" speed="22.22" allow="custom2" discard="1" width="3.65"/>
    <type id="special3" priority="1" speed="22.22" allow="custom1 custom2" discard="1" width="3.65"/>
    <type id="stop" priority="1" speed="13.89" disallow="pedestrian tram rail_urban rail rail_electric rail_fast ship" width="3.65"/>
    <type id="tram" priority="2" speed="13.89" allow="tram" width="3.65"/>

    <edge id=":1034_0" function="internal">
        <lane id=":1034_0_0" index="0" disallow="pedestrian tram rail_urban rail rail_electric rail_fast ship" speed="13.89" length="44.66" width="3.50" shape="452.56,-151.78 497.22,-151.97"/>
        <lane id=":1034_0_1" index="1" disallow="pedestrian tram rail_urban rail rail_electric rail_fast ship" speed="13.89" length="44.66" width="3.50" shape="452.57,-148.28 497.23,-148.47"/>
        <lane id=":1034_0_2" index="2" disallow="pedestrian tram rail_urban rail rail_electric rail_fast ship" speed="13.89" length="44.66" width="3.50" shape="452.58,-144.78 497.24,-144.97"/>
        <lane id=":1034_0_3" index="3" disallow="pedestrian tram rail_urban rail rail_electric rail_fast ship" speed="13.89" length="44.66" width="3.50" shape="452.60,-141.28 497.26,-141.47"/>
        <lane id=":1034_0_4" index="4" disallow="pedestrian tram rail_urban rail rail_electric rail_fast ship" speed="13.89" length="44.66" width="3.50" shape="452.61,-137.78 497.27,-137.97"/>
    </edge>
    <edge id=":1034_5" function="internal">
        <lane id=":1034_5_0" index="0" disallow="pedestrian tram rail_urban rail rail_electric rail_fast ship" speed="13.89" length="42.68" width="3.50" shape="452.61,-137.78 464.62,-136.96 475.17,-134.39 484.25,-130.08 491.86,-124.01"/>
    </edge>
    <edge id=":1050_0" function="internal">
        <lane id=":1050_0_0" index="0" disallow="pedestrian tram rail_urban rail rail_electric rail_fast ship" speed="13.89" length="32.53" width="3.50" shape="522.83,-65.33 527.85,-59.59 534.24,-55.49 542.01,-53.03 551.14,-52.21"/>
    </edge>
    <edge id=":1050_1" function="internal">
        <lane id=":1050_1_0" index="0" disallow="pedestrian tram rail_urban rail rail_electric rail_fast ship" speed="13.89" length="70.79" width="3.50" shape="480.35,-52.24 551.14,-52.21"/>
        <lane id=":1050_1_1" index="1" disallow="pedestrian tram rail_urban rail rail_electric rail_fast ship" speed="13.89" length="70.79" width="3.50" shape="480.34,-48.74 551.13,-48.71"/>
        <lane id=":1050_1_2" index="2" disallow="pedestrian tram rail_urban rail rail_electric rail_fast ship" speed="13.89" length="70.79" width="3.50" shape="480.34,-45.24 551.13,-45.21"/>
        <lane id=":1050_1_3" index="3" disallow="pedestrian tram rail_urban rail rail_electric rail_fast ship" speed="13.89" length="70.79" width="3.50" shape="480.34,-41.74 551.13,-41.71"/>
        <lane id=":1050_1_4" index="4" disallow="pedestrian tram rail_urban rail rail_electric rail_fast ship" speed="13.89" length="70.79" width="3.50" shape="480.34,-38.24 551.13,-38.21"/>
    </edge>
    <edge id=":1050_6" function="internal">
        <lane id=":1050_6_0" index="0" disallow="pedestrian tram rail_urban rail rail_electric rail_fast ship" speed="13.89" length="37.64" width="3.50" shape="480.34,-38.24 490.53,-37.38 499.57,-34.78 507.44,-30.47 514.15,-24.43"/>
    </edge>
    <edge id=":1128_0" function="internal">
        <lane id=":1128_0_0" index="0" disallow="pedestrian tram rail_urban rail rail_electric rail_fast ship" speed="13.89" length="42.10" width="3.50" shape="-82.75,-135.45 -124.85,-135.35"/>
        <lane id=":1128_0_1" index="1" disallow="pedestrian tram rail_urban rail rail_electric rail_fast ship" speed="13.89" length="42.10" width="3.50" shape="-82.76,-138.95 -124.86,-138.85"/>
        <lane id=":1128_0_2" index="2" disallow="pedestrian tram rail_urban rail rail_electric rail_fast ship" speed="13.89" length="42.10" width="3.50" shape="-82.77,-142.45 -124.87,-142.35"/>
        <lane id=":1128_0_3" index="3" disallow="pedestrian tram rail_urban rail rail_electric rail_fast ship" speed="13.89" length="42.10" width="3.50" shape="-82.78,-145.95 -124.88,-145.85"/>
    </edge>
    <edge id=":1128_4" function="internal">
        <lane id=":1128_4_0" index="0" disallow="pedestrian tram rail_urban rail rail_electric rail_fast ship" speed="13.89" length="39.37" width="3.50" shape="-87.62,-160.18 -92.31,-157.11 -100.39,-153.55 -111.41,-150.60 -124.88,-149.35"/>
    </edge>
    <edge id=":1146_0" function="internal">
        <lane id=":1146_0_0" index="0" disallow="pedestrian tram rail_urban rail rail_electric rail_fast ship" speed="13.89" length="69.12" width="3.50" shape="185.67,-164.99 194.48,-161.67 211.58,-156.95 232.58,-152.74 253.06,-150.97"/>
    </edge>
    <edge id=":1146_1" function="internal">
        <lane id=":1146_1_0" index="0" disallow="pedestrian tram rail_urban rail rail_electric rail_fast ship" speed="13.89" length="71.30" width="3.50" shape="181.76,-150.67 253.06,-150.97"/>
        <lane id=":1146_1_1" index="1" disallow="pedestrian tram rail_urban rail rail_electric rail_fast ship" speed="13.89" length="71.30" width="3.50" shape="181.77,-147.17 253.07,-147.47"/>
        <lane id=":1146_1_2" index="2" disallow="pedestrian tram rail_urban rail rail_electric rail_fast ship" speed="13.89" length="71.30" width="3.50" shape="181.79,-143.67 253.09,-143.97"/>
        <lane id=":1146_1_3" index="3" disallow="pedestrian tram rail_urban rail rail_electric rail_fast ship" speed="13.89" length="71.30" width="3.50" shape="181.80,-140.17 253.10,-140.47"/>
        <lane id=":1146_1_4" index="4" disallow="pedestrian tram rail_urban rail rail_electric rail_fast ship" speed="13.89" length="71.30" width="3.50" shape="181.82,-136.67 253.12,-136.97"/>
    </edge>
    <edge id=":1162_0" function="internal">
        <lane id=":1162_0_0" index="0" disallow="pedestrian tram rail_urban rail rail_electric rail_fast ship" speed="13.89" length="29.23" width="3.50" shape="154.42,23.50 125.19,23.39">
            <param key="signalID" value="1238"/>
        </lane>
        <lane id=":1162_0_1" index="1" disallow="pedestrian tram rail_urban rail rail_electric rail_fast ship" speed="13.89" length="29.23" width="3.50" shape="154.43,20.00 125.20,19.89">
            <param key="signalID" value="1238"/>
        </lane>
        <lane id=":1162_0_2" index="2" disallow="pedestrian tram rail_urban rail rail_electric rail_fast ship" speed="13.89" length="29.23" width="3.50" shape="154.44,16.50 125.21,16.39">
            <param key="signalID" value="1238"/>
        </lane>
        <lane id=":1162_0_3" index="3" disallow="pedestrian tram rail_urban rail rail_electric rail_fast ship" speed="13.89" length="29.23" width="3.50" shape="154.46,13.00 125.23,12.89">
            <param key="signalID" value="1238"/>
        </lane>
    </edge>
    <edge id=":1162_4" function="internal">
        <lane id=":1162_4_0" index="0" disallow="pedestrian tram rail_urban rail rail_electric rail_fast ship" speed="13.31" length="36.05" width="3.50" shape="144.72,-3.40 141.86,8.34 137.65,16.72 132.09,21.74 125.19,23.39">
            <param key="signalID" value="1239"/>
        </lane>
        <lane id=":1162_4_1" index="1" disallow="pedestrian tram rail_urban rail rail_electric rail_fast ship" speed="12.80" length="33.30" width="3.50" shape="144.72,-3.40 142.07,6.81 137.94,14.10 132.31,18.46 125.20,19.89">
            <param key="signalID" value="1239"/>
        </lane>
        <lane id=":1162_4_2" index="2" disallow="pedestrian tram rail_urban rail rail_electric rail_fast ship" speed="12.30" length="30.63" width="3.50" shape="144.72,-3.40 142.29,5.28 138.22,11.47 132.53,15.18 125.21,16.39">
            <param key="signalID" value="1239"/>
        </lane>
        <lane id=":1162_4_3" index="3" disallow="pedestrian tram rail_urban rail rail_electric rail_fast ship" speed="11.28" length="25.62" width="3.50" shape="141.26,-3.97 139.23,3.43 135.87,8.70 131.21,11.86 125.23,12.89">
            <param key="signalID" value="1239"/>
        </lane>
    </edge>
    <edge id=":1187_0" function="internal">
        <lane id=":1187_0_0" index="0" disallow="pedestrian tram rail_urban rail rail_electric rail_fast ship" speed="13.89" length="55.65" width="3.50" shape="72.87,-251.55 128.52,-251.57"/>
        <lane id=":1187_0_1" index="1" disallow="pedestrian tram rail_urban rail rail_electric rail_fast ship" speed="13.89" length="55.65" width="3.50" shape="72.87,-248.05 128.52,-248.07"/>
        <lane id=":1187_0_2" index="2" disallow="pedestrian tram rail_urban rail rail_electric rail_fast ship" speed="13.89" length="55.65" width="3.50" shape="72.87,-244.55 128.52,-244.57"/>
        <lane id=":1187_0_3" index="3" disallow="pedestrian tram rail_urban rail rail_electric rail_fast ship" speed="13.89" length="55.65" width="3.50" shape="72.87,-241.05 128.52,-241.07"/>
        <lane id=":1187_0_4" index="4" disallow="pedestrian tram rail_urban rail rail_electric rail_fast ship" speed="13.89" length="55.65" width="3.50" shape="72.87,-237.55 128.52,-237.57"/>
    </edge>
    <edge id=":1187_5" function="internal">
        <lane id=":1187_5_0" index="0" disallow="pedestrian tram rail_urban rail rail_electric rail_fast ship" speed="13.89" length="53.61" width="3.50" shape="72.87,-237.55 90.84,-235.76 106.30,-231.59 117.83,-226.87 124.01,-223.41"/>
    </edge>
    <edge id=":1203_0" function="internal">
        <lane id=":1203_0_0" index="0" disallow="pedestrian tram rail_urban rail rail_electric rail_fast ship" speed="13.89" length="35.78" width="3.50" shape="527.60,24.39 491.82,24.46"/>
        <lane id=":1203_0_1" index="1" disallow="pedestrian tram rail_urban rail rail_electric rail_fast ship" speed="13.89" length="35.78" width="3.50" shape="527.59,20.89 491.81,20.96"/>
        <lane id=":1203_0_2" index="2" disallow="pedestrian tram rail_urban rail rail_electric rail_fast ship" speed="13.89" length="35.78" width="3.50" shape="527.58,17.39 491.80,17.46"/>
        <lane id=":1203_0_3" index="3" disallow="pedestrian tram rail_urban rail rail_electric rail_fast ship" speed="13.89" length="35.78" width="3.50" shape="527.58,13.89 491.80,13.96"/>
        <lane id=":1203_0_4" index="4" disallow="pedestrian tram rail_urban rail rail_electric rail_fast ship" speed="13.89" length="35.78" width="3.50" shape="527.57,10.39 491.79,10.46"/>
    </edge>
    <edge id=":1203_5" function="internal">
        <lane id=":1203_5_0" index="0" disallow="pedestrian tram rail_urban rail rail_electric rail_fast ship" speed="13.77" length="32.81" width="3.50" shape="518.86,-0.46 515.32,5.83 509.63,10.33 501.79,13.05 491.80,13.96"/>
        <lane id=":1203_5_1" index="1" disallow="pedestrian tram rail_urban rail rail_electric rail_fast ship" speed="13.37" length="30.90" width="3.50" shape="518.86,-0.46 515.77,4.30 510.23,7.71 502.23,9.76 491.79,10.46"/>
    </edge>
    <edge id=":15#1_0" function="internal">
        <lane id=":15#1_0_0" index="0" disallow="pedestrian tram rail_urban rail rail_electric rail_fast ship" speed="13.89" length="3.80" width="3.50" shape="43.15,-52.41 46.55,-54.41"/>
        <lane id=":15#1_0_1" index="1" disallow="pedestrian tram rail_urban rail rail_electric rail_fast ship" speed="13.89" length="3.80" width="3.50" shape="42.59,-48.96 45.97,-50.96"/>
        <lane id=":15#1_0_2" index="2" disallow="pedestrian tram rail_urban rail rail_electric rail_fast ship" speed="13.89" length="3.80" width="3.50" shape="42.02,-45.50 45.39,-47.50"/>
        <lane id=":15#1_0_3" index="3" disallow="pedestrian tram rail_urban rail rail_electric rail_fast ship" speed="13.89" length="3.80" width="3.50" shape="41.46,-42.05 44.81,-44.05"/>
        <lane id=":15#1_0_4" index="4" allow="emergency authority" speed="13.89" length="3.80" width="4.18" shape="41.05,-39.50 41.98,-39.55 42.61,-39.89 43.24,-40.22 44.18,-40.26"/>
    </edge>
    <edge id=":15.14_0" function="internal">
        <lane id=":15.14_0_0" index="0" disallow="pedestrian tram rail_urban rail rail_electric rail_fast ship" speed="13.89" length="8.48" width="3.50" shape="22.34,-52.38 24.90,-52.64 26.61,-53.21 28.33,-53.73 30.89,-53.88"/>
        <lane id=":15.14_0_1" index="1" disallow="pedestrian tram rail_urban rail rail_electric rail_fast ship" speed="13.89" length="8.48" width="3.50" shape="22.33,-48.88 24.84,-49.14 26.52,-49.71 28.21,-50.24 30.71,-50.38"/>
        <lane id=":15.14_0_2" index="2" disallow="pedestrian tram rail_urban rail rail_electric rail_fast ship" speed="13.89" length="8.48" width="3.50" shape="22.33,-45.38 24.79,-45.64 26.43,-46.21 28.08,-46.74 30.53,-46.89"/>
        <lane id=":15.14_0_3" index="3" disallow="pedestrian tram rail_urban rail rail_electric rail_fast ship" speed="13.89" length="8.48" width="3.50" shape="22.33,-41.88 24.73,-42.14 26.34,-42.71 27.96,-43.24 30.36,-43.39"/>
    </edge>
    <edge id=":22#1_0" function="internal">
        <lane id=":22#1_0_0" index="0" disallow="pedestrian tram rail_urban rail rail_electric rail_fast ship" speed="13.89" length="3.47" width="3.50" shape="-47.45,-135.42 -48.42,-135.24 -49.01,-134.71 -49.61,-134.17 -50.58,-133.99"/>
        <lane id=":22#1_0_1" index="1" disallow="pedestrian tram rail_urban rail rail_electric rail_fast ship" speed="13.89" length="3.47" width="3.50" shape="-47.14,-138.91 -48.12,-138.73 -48.71,-138.19 -49.31,-137.66 -50.28,-137.47"/>
        <lane id=":22#1_0_2" index="2" disallow="pedestrian tram rail_urban rail rail_electric rail_fast ship" speed="13.89" length="3.47" width="3.50" shape="-46.84,-142.40 -47.82,-142.21 -48.41,-141.68 -49.01,-141.14 -49.98,-140.96"/>
        <lane id=":22#1_0_3" index="3" allow="emergency authority" speed="13.89" length="3.47" width="3.50" shape="-46.61,-145.04 -47.53,-144.98 -48.15,-144.74 -48.76,-144.50 -49.68,-144.45"/>
    </edge>
    <edge id=":23.22_0" function="internal">
        <lane id=":23.22_0_0" index="0" disallow="pedestrian tram rail_urban rail rail_electric rail_fast ship" speed="13.89" length="7.92" width="3.50" shape="-24.42,-135.58 -26.82,-135.30 -28.44,-134.72 -30.05,-134.20 -32.44,-134.12"/>
        <lane id=":23.22_0_1" index="1" disallow="pedestrian tram rail_urban rail rail_electric rail_fast ship" speed="13.89" length="7.92" width="3.50" shape="-24.43,-139.08 -26.74,-138.80 -28.29,-138.22 -29.84,-137.70 -32.14,-137.61"/>
        <lane id=":23.22_0_2" index="2" disallow="pedestrian tram rail_urban rail rail_electric rail_fast ship" speed="13.89" length="7.92" width="3.50" shape="-24.44,-142.58 -26.66,-142.30 -28.14,-141.71 -29.62,-141.19 -31.84,-141.10"/>
    </edge>
    <edge id=":25.16_0" function="internal">
        <lane id=":25.16_0_0" index="0" disallow="pedestrian tram rail_urban rail rail_electric rail_fast ship" speed="13.89" length="0.30" width="3.50" shape="199.92,-52.21 200.21,-52.21"/>
        <lane id=":25.16_0_1" index="1" disallow="pedestrian tram rail_urban rail rail_electric rail_fast ship" speed="13.89" length="0.30" width="3.50" shape="199.91,-48.71 200.21,-48.71"/>
        <lane id=":25.16_0_2" index="2" disallow="pedestrian tram rail_urban rail rail_electric rail_fast ship" speed="13.89" length="0.30" width="3.50" shape="199.91,-45.21 200.21,-45.21"/>
        <lane id=":25.16_0_3" index="3" disallow="pedestrian tram rail_urban rail rail_electric rail_fast ship" speed="13.89" length="0.30" width="3.50" shape="199.91,-41.71 200.22,-41.71"/>
    </edge>
    <edge id=":268_0" function="internal">
        <lane id=":268_0_0" index="0" disallow="pedestrian tram rail_urban rail rail_electric rail_fast ship" speed="13.89" length="41.00" width="3.50" shape="672.89,-65.47 672.79,-52.74 672.09,-44.01 670.27,-35.44 666.78,-23.19"/>
        <lane id=":268_0_1" index="1" disallow="pedestrian tram rail_urban rail rail_electric rail_fast ship" speed="13.89" length="41.00" width="3.50" shape="669.39,-65.47 669.29,-53.03 668.61,-44.51 666.83,-36.14 663.42,-24.17"/>
        <lane id=":268_0_2" index="2" disallow="pedestrian tram rail_urban rail rail_electric rail_fast ship" speed="13.89" length="41.00" width="3.50" shape="665.89,-65.47 665.79,-53.33 665.12,-45.00 663.38,-36.83 660.06,-25.15"/>
        <lane id=":268_0_3" index="3" disallow="pedestrian tram rail_urban rail rail_electric rail_fast ship" speed="13.89" length="41.00" width="3.50" shape="662.39,-65.47 662.29,-53.62 661.64,-45.50 659.94,-37.53 656.70,-26.13"/>
        <lane id=":268_0_4" index="4" disallow="pedestrian tram rail_urban rail rail_electric rail_fast ship" speed="13.89" length="41.00" width="3.50" shape="658.89,-65.47 658.79,-53.91 658.16,-46.00 656.50,-38.22 653.34,-27.11"/>
    </edge>
    <edge id=":268_5" function="internal">
        <lane id=":268_5_0" index="0" disallow="pedestrian tram rail_urban rail rail_electric rail_fast ship" speed="12.43" length="43.37" width="3.50" shape="646.90,-52.16 659.01,-50.27 666.21,-44.70 668.73,-35.62 666.78,-23.19">
            <param key="signalID" value="1224"/>
        </lane>
        <lane id=":268_5_1" index="1" disallow="pedestrian tram rail_urban rail rail_electric rail_fast ship" speed="11.43" length="36.47" width="3.50" shape="646.89,-48.66 657.05,-47.05 663.04,-42.32 665.09,-34.64 663.42,-24.17">
            <param key="signalID" value="1224"/>
        </lane>
        <lane id=":268_5_2" index="2" disallow="pedestrian tram rail_urban rail rail_electric rail_fast ship" speed="10.34" length="29.57" width="3.50" shape="646.89,-45.16 655.09,-43.83 659.87,-39.94 661.45,-33.66 660.06,-25.15">
            <param key="signalID" value="1224"/>
        </lane>
        <lane id=":268_5_3" index="3" disallow="pedestrian tram rail_urban rail rail_electric rail_fast ship" speed="9.11" length="22.63" width="3.50" shape="646.89,-41.66 652.88,-40.69 656.52,-37.77 657.79,-32.92 656.70,-26.13">
            <param key="signalID" value="1224"/>
        </lane>
        <lane id=":268_5_4" index="4" disallow="pedestrian tram rail_urban rail rail_electric rail_fast ship" speed="7.69" length="15.73" width="3.50" shape="646.89,-38.16 650.92,-37.47 653.34,-35.40 654.15,-31.94 653.34,-27.11">
            <param key="signalID" value="1224"/>
        </lane>
    </edge>
    <edge id=":29#1_0" function="internal">
        <lane id=":29#1_0_0" index="0" disallow="pedestrian tram rail_urban rail rail_electric rail_fast ship" speed="13.89" length="3.50" width="3.50" shape="306.23,-52.41 307.21,-52.57 307.81,-53.09 308.42,-53.61 309.39,-53.77"/>
        <lane id=":29#1_0_1" index="1" disallow="pedestrian tram rail_urban rail rail_electric rail_fast ship" speed="13.89" length="3.50" width="3.50" shape="305.84,-48.93 306.81,-49.09 307.42,-49.61 308.03,-50.13 309.00,-50.29"/>
        <lane id=":29#1_0_2" index="2" disallow="pedestrian tram rail_urban rail rail_electric rail_fast ship" speed="13.89" length="3.50" width="3.50" shape="305.45,-45.45 306.42,-45.61 307.03,-46.13 307.64,-46.65 308.61,-46.81"/>
        <lane id=":29#1_0_3" index="3" disallow="pedestrian tram rail_urban rail rail_electric rail_fast ship" speed="13.89" length="3.50" width="3.50" shape="305.05,-41.97 306.03,-42.13 306.64,-42.65 307.25,-43.18 308.22,-43.34"/>
        <lane id=":29#1_0_4" index="4" allow="emergency authority" speed="13.89" length="3.50" width="3.50" shape="304.76,-39.34 305.67,-39.38 306.29,-39.60 306.92,-39.83 307.83,-39.86"/>
    </edge>
    <edge id=":29.28_0" function="internal">
        <lane id=":29.28_0_0" index="0" disallow="pedestrian tram rail_urban rail rail_electric rail_fast ship" speed="13.89" length="8.41" width="3.50" shape="278.40,-52.34 280.89,-52.62 282.55,-53.24 284.22,-53.83 286.71,-54.05"/>
        <lane id=":29.28_0_1" index="1" disallow="pedestrian tram rail_urban rail rail_electric rail_fast ship" speed="13.89" length="8.41" width="3.50" shape="278.40,-48.84 280.86,-49.12 282.51,-49.74 284.15,-50.33 286.61,-50.55"/>
        <lane id=":29.28_0_2" index="2" disallow="pedestrian tram rail_urban rail rail_electric rail_fast ship" speed="13.89" length="8.41" width="3.50" shape="278.40,-45.34 280.83,-45.62 282.46,-46.24 284.08,-46.83 286.51,-47.05"/>
        <lane id=":29.28_0_3" index="3" disallow="pedestrian tram rail_urban rail rail_electric rail_fast ship" speed="13.89" length="8.41" width="3.50" shape="278.40,-41.84 280.80,-42.13 282.41,-42.76 284.01,-43.36 286.42,-43.56"/>
    </edge>
    <edge id=":3.24_0" function="internal">
        <lane id=":3.24_0_0" index="0" disallow="pedestrian tram rail_urban rail rail_electric rail_fast ship" speed="13.89" length="0.10" width="3.50" shape="510.90,-89.45 510.90,-89.45"/>
    </edge>
    <edge id=":332_0" function="internal">
        <lane id=":332_0_0" index="0" disallow="pedestrian tram rail_urban rail rail_electric rail_fast ship" speed="13.89" length="48.23" width="3.50" shape="671.80,-168.65 672.32,-120.43"/>
        <lane id=":332_0_1" index="1" disallow="pedestrian tram rail_urban rail rail_electric rail_fast ship" speed="13.89" length="48.23" width="3.50" shape="668.30,-168.62 668.82,-120.39"/>
        <lane id=":332_0_2" index="2" disallow="pedestrian tram rail_urban rail rail_electric rail_fast ship" speed="13.89" length="48.23" width="3.50" shape="664.80,-168.58 665.32,-120.35"/>
        <lane id=":332_0_3" index="3" disallow="pedestrian tram rail_urban rail rail_electric rail_fast ship" speed="13.89" length="48.23" width="3.50" shape="661.30,-168.54 661.82,-120.31"/>
        <lane id=":332_0_4" index="4" disallow="pedestrian tram rail_urban rail rail_electric rail_fast ship" speed="13.89" length="48.23" width="3.50" shape="657.80,-168.50 658.32,-120.28"/>
    </edge>
    <edge id=":332_5" function="internal">
        <lane id=":332_5_0" index="0" disallow="pedestrian tram rail_urban rail rail_electric rail_fast ship" speed="13.89" length="50.87" width="3.50" shape="641.27,-152.56 654.73,-150.60 664.38,-144.59 670.25,-134.53 672.32,-120.43">
            <param key="signalID" value="1226"/>
        </lane>
        <lane id=":332_5_1" index="1" disallow="pedestrian tram rail_urban rail rail_electric rail_fast ship" speed="13.89" length="45.25" width="3.50" shape="641.29,-149.06 653.22,-147.31 661.78,-141.95 666.98,-132.97 668.82,-120.39">
            <param key="signalID" value="1226"/>
        </lane>
        <lane id=":332_5_2" index="2" disallow="pedestrian tram rail_urban rail rail_electric rail_fast ship" speed="13.12" length="39.63" width="3.50" shape="641.30,-145.56 651.71,-144.02 659.18,-139.30 663.72,-131.42 665.32,-120.35">
            <param key="signalID" value="1226"/>
        </lane>
        <lane id=":332_5_3" index="3" disallow="pedestrian tram rail_urban rail rail_electric rail_fast ship" speed="12.19" length="34.02" width="3.50" shape="641.32,-142.06 650.20,-140.73 656.58,-136.66 660.45,-129.86 661.82,-120.31">
            <param key="signalID" value="1226"/>
        </lane>
        <lane id=":332_5_4" index="4" disallow="pedestrian tram rail_urban rail rail_electric rail_fast ship" speed="11.17" length="28.40" width="3.50" shape="641.33,-138.56 648.69,-137.44 653.97,-134.02 657.19,-128.30 658.32,-120.28">
            <param key="signalID" value="1226"/>
        </lane>
    </edge>
    <edge id=":34.0_0" function="internal">
        <lane id=":34.0_0_0" index="0" disallow="pedestrian tram rail_urban rail rail_electric rail_fast ship" speed="13.89" length="0.10" width="3.50" shape="11.25,-162.31 11.25,-162.31"/>
        <lane id=":34.0_0_1" index="1" disallow="pedestrian tram rail_urban rail rail_electric rail_fast ship" speed="13.89" length="0.10" width="3.50" shape="7.75,-162.34 7.75,-162.34"/>
        <lane id=":34.0_0_2" index="2" disallow="pedestrian tram rail_urban rail rail_electric rail_fast ship" speed="13.89" length="0.10" width="3.50" shape="4.25,-162.38 4.25,-162.38"/>
    </edge>
    <edge id=":34.0_3" function="internal">
        <lane id=":34.0_3_0" index="0" disallow="pedestrian tram rail_urban rail rail_electric rail_fast ship" speed="13.89" length="0.10" width="3.50" shape="-10.75,-162.52 -10.75,-162.52"/>
        <lane id=":34.0_3_1" index="1" disallow="pedestrian tram rail_urban rail rail_electric rail_fast ship" speed="13.89" length="0.10" width="3.50" shape="-7.25,-162.48 -7.25,-162.48"/>
        <lane id=":34.0_3_2" index="2" disallow="pedestrian tram rail_urban rail rail_electric rail_fast ship" speed="13.89" length="0.10" width="3.50" shape="-3.75,-162.45 -3.75,-162.45"/>
    </edge>
    <edge id=":396_0" function="internal">
        <lane id=":396_0_0" index="0" disallow="pedestrian tram rail_urban rail rail_electric rail_fast ship" speed="13.89" length="33.56" width="3.50" shape="-205.85,-135.16 -239.41,-135.08"/>
        <lane id=":396_0_1" index="1" disallow="pedestrian tram rail_urban rail rail_electric rail_fast ship" speed="13.89" length="33.56" width="3.50" shape="-205.86,-138.66 -239.42,-138.58"/>
        <lane id=":396_0_2" index="2" disallow="pedestrian tram rail_urban rail rail_electric rail_fast ship" speed="13.89" length="33.56" width="3.50" shape="-205.87,-142.16 -239.43,-142.08"/>
        <lane id=":396_0_3" index="3" disallow="pedestrian tram rail_urban rail rail_electric rail_fast ship" speed="13.89" length="33.56" width="3.50" shape="-205.88,-145.66 -239.44,-145.58"/>
    </edge>
    <edge id=":396_4" function="internal">
        <lane id=":396_4_0" index="0" disallow="pedestrian tram rail_urban rail rail_electric rail_fast ship" speed="13.89" length="31.56" width="3.22" shape="-205.88,-149.16 -216.41,-150.35 -224.78,-153.26 -230.96,-156.76 -234.97,-159.76"/>
    </edge>
    <edge id=":41.31_0" function="internal">
        <lane id=":41.31_0_0" index="0" disallow="pedestrian tram rail_urban rail rail_electric rail_fast ship" speed="13.89" length="0.29" width="3.50" shape="145.64,-13.21 145.64,-12.89"/>
        <lane id=":41.31_0_1" index="1" disallow="pedestrian tram rail_urban rail rail_electric rail_fast ship" speed="13.89" length="0.29" width="3.50" shape="142.14,-13.25 142.14,-12.98"/>
    </edge>
    <edge id=":413_0" function="internal">
        <lane id=":413_0_0" index="0" disallow="pedestrian tram rail_urban rail rail_electric rail_fast ship" speed="13.89" length="27.95" width="3.50" shape="-127.76,22.47 -155.71,22.37"/>
        <lane id=":413_0_1" index="1" disallow="pedestrian tram rail_urban rail rail_electric rail_fast ship" speed="13.89" length="27.95" width="3.50" shape="-127.75,18.97 -155.70,18.87"/>
        <lane id=":413_0_2" index="2" disallow="pedestrian tram rail_urban rail rail_electric rail_fast ship" speed="13.89" length="27.95" width="3.50" shape="-127.73,15.47 -155.68,15.37"/>