<?xml version="1.0" encoding="UTF-8"?>

<!-- generated on 2023-06-03 15:09:51 by Eclipse SUMO netconvert Version 1.16.0
<configuration xmlns:xsi="http://www.w3.org/2001/XMLSchema-instance" xsi:noNamespaceSchemaLocation="http://sumo.dlr.de/xsd/netconvertConfiguration.xsd">

    <input>
        <opendrive-files value="Town10HD.xodr"/>
    </input>

    <output>
        <output-file value="C:\Apps\OpenCDA\opencda\assets\custom_single_town10_cosim\custom_single_town10_cosim.net.xml"/>
    </output>

    <junctions>
        <no-turnarounds.except-deadend value="true"/>
    </junctions>

    <formats>
        <opendrive.import-all-lanes value="true"/>
    </formats>

</configuration>
-->

<net version="1.16" junctionCornerDetail="5" rectangularLaneCut="true" limitTurnSpeed="5.50" xmlns:xsi="http://www.w3.org/2001/XMLSchema-instance" xsi:noNamespaceSchemaLocation="http://sumo.dlr.de/xsd/net_file.xsd">

    <location netOffset="109.34,135.96" convBoundary="0.00,0.00,214.07,199.44" origBoundary="0.000000,0.000000,0.000000,0.000000" projParameter="+proj=tmerc +lat_0=0 +lon_0=0 +k=1 +x_0=0 +y_0=0 +datum=WGS84 +units=m  +vunits=m +no_defs "/>

    <type id="bidirectional" priority="1" speed="1.39" disallow="pedestrian tram rail_urban rail rail_electric rail_fast ship" width="3.65"/>
    <type id="border" priority="0" speed="1.39" disallow="all" discard="1" width="0.10"/>
    <type id="driving" priority="1" speed="13.89" disallow="pedestrian tram rail_urban rail rail_electric rail_fast ship" width="3.65"/>
    <type id="entry" priority="1" speed="22.22" disallow="pedestrian tram rail_urban rail rail_electric rail_fast ship" width="3.65"/>
    <type id="exit" priority="1" speed="22.22" disallow="pedestrian tram rail_urban rail rail_electric rail_fast ship" width="3.65"/>
    <type id="median" priority="0" speed="1.39" disallow="all" discard="1" width="0.10"/>
    <type id="mwyEntry" priority="1" speed="22.22" allow="private emergency authority army vip passenger hov taxi bus coach delivery truck trailer motorcycle evehicle custom1 custom2" width="3.65"/>
    <type id="mwyExit" priority="1" speed="22.22" allow="private emergency authority army vip passenger hov taxi bus coach delivery truck trailer motorcycle evehicle custom1 custom2" width="3.65"/>
    <type id="none" priority="0" speed="1.39" disallow="all" discard="1" width="1.00"/>
    <type id="offRamp" priority="1" speed="22.22" allow="private emergency authority army vip passenger hov taxi bus coach delivery truck trailer motorcycle evehicle custom1 custom2" width="3.65"/>
    <type id="onRamp" priority="1" speed="22.22" allow="private emergency authority army vip passenger hov taxi bus coach delivery truck trailer motorcycle evehicle custom1 custom2" width="3.65"/>
    <type id="parking" priority="1" speed="1.39" disallow="pedestrian tram rail_urban rail rail_electric rail_fast ship" width="2.50"/>
    <type id="rail" priority="3" speed="33.33" allow="rail_urban rail rail_electric rail_fast" width="3.65"/>
    <type id="restricted" priority="0" speed="13.89" disallow="all" width="3.65"/>
    <type id="roadWorks" priority="0" speed="1.39" allow="authority" width="3.65"/>
    <type id="shoulder" priority="0" speed="1.39" disallow="all" discard="1" width="1.00"/>
    <type id="special1" priority="1" speed="22.22" allow="custom1" discard="1" width="3.65"/>
    <type id="special2" priority="1" speed="22.22" allow="custom2" discard="1" width="3.65"/>
    <type id="special3" priority="1" speed="22.22" allow="custom1 custom2" discard="1" width="3.65"/>
    <type id="stop" priority="1" speed="13.89" disallow="pedestrian tram rail_urban rail rail_electric rail_fast ship" width="3.65"/>
    <type id="tram" priority="2" speed="13.89" allow="tram" width="3.65"/>

    <edge id=":10.0_0" function="internal">
        <lane id=":10.0_0_0" index="0" speed="13.89" length="0.67" width="6.00" shape="226.70,158.22 226.71,159.02"/>
        <lane id=":10.0_0_1" index="1" disallow="all" speed="1.39" length="0.67" width="0.63" shape="223.39,158.26 223.39,158.98"/>
        <lane id=":10.0_0_2" index="2" disallow="all" speed="1.39" length="0.67" width="2.00" shape="222.07,158.28 222.07,158.97"/>
        <lane id=":10.0_0_3" index="3" disallow="pedestrian tram rail_urban rail rail_electric rail_fast ship" speed="13.89" length="0.67" width="3.50" shape="219.32,158.32 219.32,158.94"/>
        <lane id=":10.0_0_4" index="4" disallow="pedestrian tram rail_urban rail rail_electric rail_fast ship" speed="13.89" length="0.67" width="3.50" shape="215.82,158.37 215.82,158.90"/>
    </edge>
    <edge id=":10.0_5" function="internal">
        <lane id=":10.0_5_0" index="0" speed="13.89" length="0.31" width="6.00" shape="201.44,158.75 201.44,158.57"/>
        <lane id=":10.0_5_1" index="1" disallow="all" speed="1.39" length="0.31" width="0.63" shape="204.76,158.78 204.75,158.52"/>
        <lane id=":10.0_5_2" index="2" disallow="all" speed="1.39" length="0.31" width="2.00" shape="206.07,158.80 206.07,158.51"/>
        <lane id=":10.0_5_3" index="3" disallow="pedestrian tram rail_urban rail rail_electric rail_fast ship" speed="13.89" length="0.31" width="3.50" shape="208.82,158.83 208.82,158.47"/>
        <lane id=":10.0_5_4" index="4" disallow="pedestrian tram rail_urban rail rail_electric rail_fast ship" speed="13.89" length="0.31" width="3.50" shape="212.32,158.86 212.32,158.42"/>
    </edge>
    <edge id=":134_0" function="internal">
        <lane id=":134_0_0" index="0" disallow="all" speed="1.39" length="33.27" width="2.50" shape="168.29,72.64 135.01,72.68"/>
    </edge>
    <edge id=":134_1" function="internal">
        <lane id=":134_1_0" index="0" disallow="pedestrian tram rail_urban rail rail_electric rail_fast ship" speed="10.36" length="5.95" width="3.50" shape="168.28,69.64 162.40,70.51"/>
    </edge>
    <edge id=":134_2" function="internal">
        <lane id=":134_2_0" index="0" disallow="pedestrian tram rail_urban rail rail_electric rail_fast ship" speed="13.89" length="33.27" width="3.50" shape="168.28,69.64 135.01,69.68"/>
    </edge>
    <edge id=":134_10" function="internal">
        <lane id=":134_10_0" index="0" disallow="pedestrian tram rail_urban rail rail_electric rail_fast ship" speed="10.36" length="18.20" width="3.50" shape="162.40,70.51 161.83,70.59 157.19,73.43 154.36,78.15 153.36,84.75"/>
    </edge>
    <edge id=":134_3" function="internal">
        <lane id=":134_3_0" index="0" speed="13.89" length="33.27" width="6.00" shape="135.00,58.30 168.27,58.25"/>
        <lane id=":134_3_1" index="1" disallow="all" speed="1.39" length="33.27" width="0.63" shape="135.00,61.61 168.27,61.57"/>
        <lane id=":134_3_2" index="2" disallow="all" speed="1.39" length="33.27" width="2.50" shape="135.00,63.18 168.27,63.14"/>
        <lane id=":134_3_3" index="3" disallow="pedestrian tram rail_urban rail rail_electric rail_fast ship" speed="13.89" length="33.27" width="3.50" shape="135.01,66.18 168.28,66.14"/>
    </edge>
    <edge id=":134_7" function="internal">
        <lane id=":134_7_0" index="0" disallow="pedestrian tram rail_urban rail rail_electric rail_fast ship" speed="11.36" length="6.06" width="3.50" shape="135.01,66.18 141.01,67.03"/>
    </edge>
    <edge id=":134_11" function="internal">
        <lane id=":134_11_0" index="0" disallow="pedestrian tram rail_urban rail rail_electric rail_fast ship" speed="11.36" length="23.80" width="3.50" shape="141.01,67.03 143.13,67.33 148.89,70.81 152.30,76.62 153.36,84.75"/>
    </edge>
    <edge id=":134_8" function="internal">
        <lane id=":134_8_0" index="0" disallow="pedestrian tram rail_urban rail rail_electric rail_fast ship" speed="10.26" length="24.16" width="3.50" shape="149.86,84.70 149.00,78.12 146.24,73.43 141.58,70.61 135.01,69.68"/>
    </edge>
    <edge id=":134_9" function="internal">
        <lane id=":134_9_0" index="0" disallow="pedestrian tram rail_urban rail rail_electric rail_fast ship" speed="11.45" length="29.73" width="3.50" shape="149.86,84.70 151.10,76.59 154.58,70.79 160.31,67.31 168.28,66.14"/>
    </edge>
    <edge id=":16.15_0" function="internal">
        <lane id=":16.15_0_0" index="0" speed="13.89" length="0.10" width="6.00" shape="74.91,140.80 74.91,140.80"/>
        <lane id=":16.15_0_1" index="1" disallow="all" speed="1.39" length="0.10" width="0.63" shape="71.59,140.79 71.59,140.79"/>
        <lane id=":16.15_0_2" index="2" disallow="all" speed="1.39" length="0.10" width="2.00" shape="70.27,140.79 70.27,140.79"/>
        <lane id=":16.15_0_3" index="3" disallow="pedestrian tram rail_urban rail rail_electric rail_fast ship" speed="13.89" length="0.10" width="3.50" shape="67.52,140.78 67.52,140.78"/>
        <lane id=":16.15_0_4" index="4" disallow="pedestrian tram rail_urban rail rail_electric rail_fast ship" speed="13.89" length="0.10" width="3.50" shape="64.02,140.77 64.02,140.77"/>
    </edge>
    <edge id=":16.15_5" function="internal">
        <lane id=":16.15_5_0" index="0" speed="13.89" length="0.10" width="6.00" shape="49.64,140.73 49.64,140.73"/>
        <lane id=":16.15_5_1" index="1" disallow="all" speed="1.39" length="0.10" width="0.63" shape="52.96,140.74 52.96,140.74"/>
        <lane id=":16.15_5_2" index="2" disallow="all" speed="1.39" length="0.10" width="2.00" shape="54.27,140.74 54.27,140.74"/>
        <lane id=":16.15_5_3" index="3" disallow="pedestrian tram rail_urban rail rail_electric rail_fast ship" speed="13.89" length="0.10" width="3.50" shape="57.02,140.75 57.02,140.75"/>
        <lane id=":16.15_5_4" index="4" disallow="pedestrian tram rail_urban rail rail_electric rail_fast ship" speed="13.89" length="0.10" width="3.50" shape="60.52,140.76 60.52,140.76"/>
    </edge>
    <edge id=":17.10_0" function="internal">
        <lane id=":17.10_0_0" index="0" speed="13.89" length="0.28" width="6.00" shape="116.90,211.25 116.64,211.25"/>
        <lane id=":17.10_0_1" index="1" disallow="all" speed="1.39" length="0.28" width="0.63" shape="116.90,207.93 116.63,207.93"/>
        <lane id=":17.10_0_2" index="2" disallow="all" speed="1.39" length="0.28" width="2.00" shape="116.90,206.61 116.63,206.61"/>
        <lane id=":17.10_0_3" index="3" disallow="pedestrian tram rail_urban rail rail_electric rail_fast ship" speed="13.89" length="0.28" width="3.50" shape="116.90,203.86 116.62,203.86"/>
        <lane id=":17.10_0_4" index="4" disallow="pedestrian tram rail_urban rail rail_electric rail_fast ship" speed="13.89" length="0.28" width="3.50" shape="116.90,200.36 116.61,200.36"/>
    </edge>
    <edge id=":17.10_5" function="internal">
        <lane id=":17.10_5_0" index="0" speed="13.89" length="0.33" width="6.00" shape="116.57,185.98 116.91,185.98"/>
        <lane id=":17.10_5_1" index="1" disallow="all" speed="1.39" length="0.33" width="0.63" shape="116.58,189.30 116.91,189.30"/>
        <lane id=":17.10_5_2" index="2" disallow="all" speed="1.39" length="0.33" width="2.00" shape="116.58,190.61 116.91,190.61"/>
        <lane id=":17.10_5_3" index="3" disallow="pedestrian tram rail_urban rail rail_electric rail_fast ship" speed="13.89" length="0.33" width="3.50" shape="116.59,193.36 116.91,193.36"/>
        <lane id=":17.10_5_4" index="4" disallow="pedestrian tram rail_urban rail rail_electric rail_fast ship" speed="13.89" length="0.33" width="3.50" shape="116.60,196.86 116.91,196.86"/>
    </edge>
    <edge id=":189_0" function="internal">
        <lane id=":189_0_0" index="0" disallow="all" speed="1.39" length="39.55" width="2.50" shape="82.11,125.86 42.56,125.97"/>
    </edge>
    <edge id=":189_1" function="internal">
        <lane id=":189_1_0" index="0" disallow="pedestrian tram rail_urban rail rail_electric rail_fast ship" speed="10.27" length="5.90" width="3.50" shape="82.10,122.86 76.27,123.73"/>
    </edge>
    <edge id=":189_2" function="internal">
        <lane id=":189_2_0" index="0" disallow="pedestrian tram rail_urban rail rail_electric rail_fast ship" speed="13.89" length="39.55" width="3.50" shape="82.10,122.86 42.55,122.97">
            <param key="signalID" value="952"/>
        </lane>
        <lane id=":189_2_1" index="1" disallow="pedestrian tram rail_urban rail rail_electric rail_fast ship" speed="13.89" length="39.55" width="3.50" shape="82.09,119.36 42.54,119.47">
            <param key="signalID" value="952"/>
        </lane>
    </edge>
    <edge id=":189_4" function="internal">
        <lane id=":189_4_0" index="0" disallow="pedestrian tram rail_urban rail rail_electric rail_fast ship" speed="12.92" length="15.62" width="3.50" shape="82.09,119.36 72.69,117.73 67.80,114.12">
            <param key="signalID" value="949"/>
        </lane>
    </edge>
    <edge id=":189_5" function="internal">
        <lane id=":189_5_0" index="0" disallow="all" speed="1.39" length="39.55" width="0.50" shape="82.09,117.36 42.54,117.47"/>
        <lane id=":189_5_1" index="1" disallow="all" speed="1.39" length="39.55" width="0.50" shape="82.08,113.36 42.52,113.47"/>
    </edge>
    <edge id=":189_24" function="internal">
        <lane id=":189_24_0" index="0" disallow="pedestrian tram rail_urban rail rail_electric rail_fast ship" speed="10.27" length="17.96" width="3.50" shape="76.27,123.73 75.75,123.81 71.20,126.64 68.46,131.33 67.53,137.90"/>
    </edge>
    <edge id=":189_25" function="internal">
        <lane id=":189_25_0" index="0" disallow="pedestrian tram rail_urban rail rail_electric rail_fast ship" speed="12.92" length="23.10" width="3.50" shape="67.80,114.12 65.98,112.78 61.97,104.51 60.66,92.93">
            <param key="signalID" value="949"/>
        </lane>
    </edge>
    <edge id=":189_7" function="internal">
        <lane id=":189_7_0" index="0" disallow="all" speed="1.39" length="44.95" width="2.00" shape="70.41,92.96 70.28,137.91"/>
    </edge>
    <edge id=":189_8" function="internal">
        <lane id=":189_8_0" index="0" disallow="pedestrian tram rail_urban rail rail_electric rail_fast ship" speed="10.19" length="6.27" width="3.50" shape="67.66,92.95 68.50,99.17"/>
    </edge>
    <edge id=":189_9" function="internal">
        <lane id=":189_9_0" index="0" disallow="pedestrian tram rail_urban rail rail_electric rail_fast ship" speed="13.89" length="44.95" width="3.50" shape="67.66,92.95 67.53,137.90">
            <param key="signalID" value="950"/>
        </lane>
        <lane id=":189_9_1" index="1" disallow="pedestrian tram rail_urban rail rail_electric rail_fast ship" speed="13.89" length="44.95" width="3.50" shape="64.16,92.94 64.03,137.89">
            <param key="signalID" value="950"/>
        </lane>
    </edge>
    <edge id=":189_11" function="internal">
        <lane id=":189_11_0" index="0" disallow="pedestrian tram rail_urban rail rail_electric rail_fast ship" speed="12.99" length="7.41" width="3.50" shape="64.16,92.94 63.28,100.31">
            <param key="signalID" value="950"/>
        </lane>
    </edge>
    <edge id=":189_26" function="internal">
        <lane id=":189_26_0" index="0" disallow="pedestrian tram rail_urban rail rail_electric rail_fast ship" speed="10.19" length="17.39" width="3.50" shape="68.50,99.17 68.54,99.49 71.24,104.15 75.75,106.94 82.06,107.86"/>
    </edge>
    <edge id=":189_27" function="internal">
        <lane id=":189_27_0" index="0" disallow="pedestrian tram rail_urban rail rail_electric rail_fast ship" speed="12.99" length="31.44" width="3.50" shape="63.28,100.31 62.78,104.52 58.72,112.80 51.97,117.78 42.54,119.47">
            <param key="signalID" value="950"/>
        </lane>
    </edge>
    <edge id=":189_12" function="internal">
        <lane id=":189_12_0" index="0" disallow="all" speed="1.39" length="39.55" width="2.50" shape="42.50,104.97 82.05,104.86">
            <param key="signalID" value="951 950"/>
        </lane>
    </edge>
    <edge id=":189_13" function="internal">
        <lane id=":189_13_0" index="0" disallow="pedestrian tram rail_urban rail rail_electric rail_fast ship" speed="10.28" length="5.93" width="3.50" shape="42.51,107.97 48.37,107.09"/>
    </edge>
    <edge id=":189_14" function="internal">
        <lane id=":189_14_0" index="0" disallow="pedestrian tram rail_urban rail rail_electric rail_fast ship" speed="13.89" length="39.55" width="3.50" shape="42.51,107.97 82.06,107.86">
            <param key="signalID" value="951 950 949"/>
        </lane>
        <lane id=":189_14_1" index="1" disallow="pedestrian tram rail_urban rail rail_electric rail_fast ship" speed="13.89" length="39.55" width="3.50" shape="42.52,111.47 82.07,111.36">
            <param key="signalID" value="951 950 949"/>
        </lane>
    </edge>
    <edge id=":189_16" function="internal">
        <lane id=":189_16_0" index="0" disallow="pedestrian tram rail_urban rail rail_electric rail_fast ship" speed="13.37" length="5.76" width="3.50" shape="42.52,111.47 48.22,112.31">
            <param key="signalID" value="952 949 949"/>
        </lane>
        <lane id=":189_16_1" index="1" disallow="pedestrian tram rail_urban rail rail_electric rail_fast ship" speed="12.93" length="5.00" width="3.50" shape="42.52,111.47 47.44,112.31">
            <param key="signalID" value="952 949 949"/>
        </lane>
    </edge>
    <edge id=":189_28" function="internal">
        <lane id=":189_28_0" index="0" disallow="pedestrian tram rail_urban rail rail_electric rail_fast ship" speed="10.28" length="17.99" width="3.50" shape="48.37,107.09 48.90,107.01 53.48,104.18 56.23,99.49 57.16,92.92"/>
    </edge>
    <edge id=":189_29" function="internal">
        <lane id=":189_29_0" index="0" disallow="pedestrian tram rail_urban rail rail_electric rail_fast ship" speed="13.37" length="35.78" width="3.50" shape="48.22,112.31 53.49,113.09 61.32,118.04 66.00,126.31 67.53,137.90">
            <param key="signalID" value="952 949 949"/>
        </lane>
    </edge>
    <edge id=":189_30" function="internal">
        <lane id=":189_30_0" index="0" disallow="pedestrian tram rail_urban rail rail_electric rail_fast ship" speed="12.93" length="33.79" width="3.50" shape="47.44,112.31 51.96,113.09 58.69,118.04 62.72,126.31 64.03,137.89">
            <param key="signalID" value="952 949 949"/>
        </lane>
    </edge>
    <edge id=":189_18" function="internal">
        <lane id=":189_18_0" index="0" disallow="all" speed="1.39" length="44.95" width="2.00" shape="54.28,137.86 54.41,92.91"/>
    </edge>
    <edge id=":189_19" function="internal">
        <lane id=":189_19_0" index="0" disallow="pedestrian tram rail_urban rail rail_electric rail_fast ship" speed="10.20" length="6.24" width="3.50" shape="57.03,137.87 56.19,131.69"/>
    </edge>
    <edge id=":189_20" function="internal">
        <lane id=":189_20_0" index="0" disallow="pedestrian tram rail_urban rail rail_electric rail_fast ship" speed="13.89" length="44.95" width="3.50" shape="57.03,137.87 57.16,92.92">
            <param key="signalID" value="951"/>
        </lane>
        <lane id=":189_20_1" index="1" disallow="pedestrian tram rail_urban rail rail_electric rail_fast ship" speed="13.89" length="44.95" width="3.50" shape="60.53,137.88 60.66,92.93">
            <param key="signalID" value="951"/>
        </lane>
    </edge>
    <edge id=":189_22" function="internal">
        <lane id=":189_22_0" index="0" disallow="pedestrian tram rail_urban rail rail_electric rail_fast ship" speed="13.45" length="8.41" width="3.50" shape="60.53,137.88 61.41,129.52">
            <param key="signalID" value="952"/>
        </lane>
        <lane id=":189_22_1" index="1" disallow="pedestrian tram rail_urban rail rail_electric rail_fast ship" speed="12.98" length="7.44" width="3.50" shape="60.53,137.88 61.41,130.49">
            <param key="signalID" value="952"/>
        </lane>
    </edge>
    <edge id=":189_31" function="internal">
        <lane id=":189_31_0" index="0" disallow="pedestrian tram rail_urban rail rail_electric rail_fast ship" speed="10.20" length="17.49" width="3.50" shape="56.19,131.69 56.14,131.33 53.43,126.67 48.90,123.88 42.55,122.97"/>
    </edge>
    <edge id=":189_32" function="internal">
        <lane id=":189_32_0" index="0" disallow="pedestrian tram rail_urban rail rail_electric rail_fast ship" speed="13.45" length="33.34" width="3.50" shape="61.41,129.52 61.91,124.77 65.96,115.39 72.68,109.75 82.06,107.86">
            <param key="signalID" value="952"/>
        </lane>
    </edge>
    <edge id=":189_33" function="internal">
        <lane id=":189_33_0" index="0" disallow="pedestrian tram rail_urban rail rail_electric rail_fast ship" speed="12.98" length="31.35" width="3.50" shape="61.41,130.49 61.91,126.30 65.95,118.02 72.68,113.04 82.07,111.36">
            <param key="signalID" value="952"/>
        </lane>
    </edge>
    <edge id=":19.18_0" function="internal">
        <lane id=":19.18_0_0" index="0" speed="13.89" length="0.10" width="6.00" shape="31.33,130.88 31.33,130.88"/>
        <lane id=":19.18_0_1" index="1" disallow="all" speed="1.39" length="0.10" width="0.63" shape="31.32,127.56 31.32,127.56"/>
        <lane id=":19.18_0_2" index="2" disallow="all" speed="1.39" length="0.10" width="2.50" shape="31.32,126.00 31.32,126.00"/>
        <lane id=":19.18_0_3" index="3" disallow="pedestrian tram rail_urban rail rail_electric rail_fast ship" speed="13.89" length="0.10" width="3.50" shape="31.31,123.00 31.31,123.00"/>
        <lane id=":19.18_0_4" index="4" disallow="pedestrian tram rail_urban rail rail_electric rail_fast ship" speed="13.89" length="0.10" width="3.50" shape="31.30,119.50 31.30,119.50"/>
        <lane id=":19.18_0_5" index="5" disallow="all" speed="1.39" length="0.10" width="0.50" shape="31.30,117.50 31.30,117.50"/>
        <lane id=":19.18_0_6" index="6" disallow="all" speed="1.39" length="0.10" width="3.50" shape="31.29,115.50 31.29,115.50"/>
        <lane id=":19.18_0_7" index="7" disallow="all" speed="1.39" length="0.10" width="0.50" shape="31.28,113.50 31.28,113.50"/>
    </edge>
    <edge id=":19.18_8" function="internal">
        <lane id=":19.18_8_0" index="0" speed="13.89" length="0.10" width="6.00" shape="31.25,100.11 31.25,100.11"/>
        <lane id=":19.18_8_1" index="1" disallow="all" speed="1.39" length="0.10" width="0.63" shape="31.26,103.43 31.26,103.43"/>
        <lane id=":19.18_8_2" index="2" disallow="all" speed="1.39" length="0.10" width="2.50" shape="31.26,105.00 31.26,105.00"/>
        <lane id=":19.18_8_3" index="3" disallow="pedestrian tram rail_urban rail rail_electric rail_fast ship" speed="13.89" length="0.10" width="3.50" shape="31.27,108.00 31.27,108.00"/>
        <lane id=":19.18_8_4" index="4" disallow="pedestrian tram rail_urban rail rail_electric rail_fast ship" speed="13.89" length="0.10" width="3.50" shape="31.28,111.50 31.28,111.50"/>
    </edge>
    <edge id=":22.16_0" function="internal">
        <lane id=":22.16_0_0" index="0" speed="13.89" length="0.30" width="6.00" shape="49.62,153.41 49.62,153.10"/>
        <lane id=":22.16_0_1" index="1" disallow="all" speed="1.39" length="0.30" width="0.63" shape="52.94,153.38 52.94,153.08"/>
        <lane id=":22.16_0_2" index="2" disallow="all" speed="1.39" length="0.30" width="2.00" shape="54.26,153.37 54.25,153.07"/>
        <lane id=":22.16_0_3" index="3" disallow="pedestrian tram rail_urban rail rail_electric rail_fast ship" speed="13.89" length="0.30" width="3.50" shape="57.01,153.35 57.00,153.05"/>
        <lane id=":22.16_0_4" index="4" disallow="pedestrian tram rail_urban rail rail_electric rail_fast ship" speed="13.89" length="0.30" width="3.50" shape="60.51,153.33 60.50,153.02"/>
    </edge>
    <edge id=":22.16_5" function="internal">
        <lane id=":22.16_5_0" index="0" speed="13.89" length="0.30" width="6.00" shape="74.89,152.92 74.89,153.22"/>
        <lane id=":22.16_5_1" index="1" disallow="all" speed="1.39" length="0.30" width="0.63" shape="71.57,152.94 71.57,153.24"/>
        <lane id=":22.16_5_2" index="2" disallow="all" speed="1.39" length="0.30" width="2.00" shape="70.25,152.95 70.26,153.25"/>
        <lane id=":22.16_5_3" index="3" disallow="pedestrian tram rail_urban rail rail_electric rail_fast ship" speed="13.89" length="0.30" width="3.50" shape="67.50,152.97 67.51,153.27"/>
        <lane id=":22.16_5_4" index="4" disallow="pedestrian tram rail_urban rail rail_electric rail_fast ship" speed="13.89" length="0.30" width="3.50" shape="64.00,153.00 64.01,153.30"/>
    </edge>
    <edge id=":23_0" function="internal">
        <lane id=":23_0_0" index="0" speed="13.89" length="40.04" width="6.00" shape="82.41,211.62 42.38,212.04"/>
        <lane id=":23_0_1" index="1" disallow="all" speed="1.39" length="40.04" width="0.63" shape="82.38,208.31 42.34,208.72"/>
        <lane id=":23_0_2" index="2" disallow="all" speed="1.39" length="40.04" width="2.00" shape="82.36,206.99 42.33,207.41"/>
        <lane id=":23_0_3" index="3" disallow="pedestrian tram rail_urban rail rail_electric rail_fast ship" speed="13.89" length="40.04" width="3.50" shape="82.34,204.24 42.30,204.66">
            <param key="signalID" value="943"/>
        </lane>
        <lane id=":23_0_4" index="4" disallow="pedestrian tram rail_urban rail rail_electric rail_fast ship" speed="13.89" length="40.04" width="3.50" shape="82.30,200.74 42.26,201.16">
            <param key="signalID" value="943"/>
        </lane>
    </edge>
    <edge id=":23_5" function="internal">
        <lane id=":23_5_0" index="0" disallow="pedestrian tram rail_urban rail rail_electric rail_fast ship" speed="12.26" length="6.02" width="3.50" shape="82.30,200.74 76.34,199.94">
            <param key="signalID" value="944 944 944"/>
        </lane>
    </edge>
    <edge id=":23_14" function="internal">
        <lane id=":23_14_0" index="0" disallow="pedestrian tram rail_urban rail rail_electric rail_fast ship" speed="12.26" length="28.70" width="3.50" shape="76.34,199.94 72.91,199.48 66.18,195.50 62.11,188.77 60.70,179.32">
            <param key="signalID" value="944 944 944"/>
        </lane>
    </edge>
    <edge id=":23_6" function="internal">
        <lane id=":23_6_0" index="0" disallow="pedestrian tram rail_urban rail rail_electric rail_fast ship" speed="10.14" length="23.40" width="3.50" shape="67.70,179.26 68.65,185.65 71.39,190.20 75.91,192.89 82.23,193.74"/>
        <lane id=":23_6_1" index="1" disallow="pedestrian tram rail_urban rail rail_electric rail_fast ship" speed="10.73" length="26.29" width="3.50" shape="67.70,179.26 68.66,187.19 71.41,192.82 75.94,196.17 82.26,197.24"/>
    </edge>
    <edge id=":23_8" function="internal">
        <lane id=":23_8_0" index="0" disallow="pedestrian tram rail_urban rail rail_electric rail_fast ship" speed="12.86" length="38.15" width="3.50" shape="64.20,179.29 62.90,190.30 58.82,198.20 51.95,202.98 42.30,204.66">
            <param key="signalID" value="944 944 945"/>
        </lane>
        <lane id=":23_8_1" index="1" disallow="pedestrian tram rail_urban rail rail_electric rail_fast ship" speed="12.39" length="35.30" width="3.50" shape="64.20,179.29 62.89,188.77 58.80,195.58 51.92,199.70 42.26,201.16">
            <param key="signalID" value="944 944 945"/>
        </lane>
    </edge>
    <edge id=":23_10" function="internal">
        <lane id=":23_10_0" index="0" disallow="all" speed="1.39" length="40.04" width="2.00" shape="42.16,191.41 82.20,190.99">
            <param key="signalID" value="943"/>
        </lane>
    </edge>
    <edge id=":23_11" function="internal">
        <lane id=":23_11_0" index="0" disallow="pedestrian tram rail_urban rail rail_electric rail_fast ship" speed="10.30" length="6.26" width="3.50" shape="42.19,194.16 48.38,193.23"/>
    </edge>
    <edge id=":23_12" function="internal">
        <lane id=":23_12_0" index="0" disallow="pedestrian tram rail_urban rail rail_electric rail_fast ship" speed="13.89" length="40.04" width="3.50" shape="42.19,194.16 82.23,193.74">
            <param key="signalID" value="943 945"/>
        </lane>
        <lane id=":23_12_1" index="1" disallow="pedestrian tram rail_urban rail rail_electric rail_fast ship" speed="13.89" length="40.04" width="3.50" shape="42.23,197.66 82.26,197.24">
            <param key="signalID" value="943 945"/>
        </lane>
    </edge>
    <edge id=":23_15" function="internal">
        <lane id=":23_15_0" index="0" disallow="pedestrian tram rail_urban rail rail_electric rail_fast ship" speed="10.30" length="17.77" width="3.50" shape="48.38,193.23 48.80,193.17 53.50,190.38 56.31,185.77 57.20,179.34"/>
    </edge>
    <edge id=":3.0_0" function="internal">
        <lane id=":3.0_0_0" index="0" speed="13.89" length="0.10" width="6.00" shape="201.39,145.42 201.39,145.42"/>
        <lane id=":3.0_0_1" index="1" disallow="all" speed="1.39" length="0.10" width="0.63" shape="204.71,145.40 204.71,145.40"/>
        <lane id=":3.0_0_2" index="2" disallow="all" speed="1.39" length="0.10" width="2.00" shape="206.02,145.39 206.02,145.39"/>
        <lane id=":3.0_0_3" index="3" disallow="pedestrian tram rail_urban rail rail_electric rail_fast ship" speed="13.89" length="0.10" width="3.50" shape="208.77,145.37 208.77,145.37"/>
        <lane id=":3.0_0_4" index="4" disallow="pedestrian tram rail_urban rail rail_electric rail_fast ship" speed="13.89" length="0.10" width="3.50" shape="212.27,145.35 212.27,145.34"/>
    </edge>
    <edge id=":3.0_5" function="internal">
        <lane id=":3.0_5_0" index="0" speed="13.89" length="0.10" width="6.00" shape="226.66,145.25 226.66,145.25"/>
        <lane id=":3.0_5_1" index="1" disallow="all" speed="1.39" length="0.10" width="0.63" shape="223.34,145.27 223.34,145.27"/>
        <lane id=":3.0_5_2" index="2" disallow="all" speed="1.39" length="0.10" width="2.00" shape="222.02,145.28 222.02,145.28"/>
        <lane id=":3.0_5_3" index="3" disallow="pedestrian tram rail_urban rail rail_electric rail_fast ship" speed="13.89" length="0.10" width="3.50" shape="219.27,145.30 219.27,145.30"/>
        <lane id=":3.0_5_4" index="4" disallow="pedestrian tram rail_urban rail rail_electric rail_fast ship" speed="13.89" length="0.10" width="3.50" shape="215.77,145.32 215.77,145.32"/>