<?xml version='1.0' encoding='UTF-8'?>

<routes>
    <vType id="vType_0" minGap="2.00" speedFactor="normc(1.00,0.00)" vClass="passenger" carFollowModel="IDMM" tau="0.4"/>
    <vType id="DEFAULT_VEHTYPE" minGap="2.50" tau="1.0"  color="255,255,255" Class="passenger" accel="0.5" carFollowModel="EIDM" laneChangeModel="SL2015" sigmaerror="0.5" sigmagap="0.5" sigmaleader="0.10"/>
     <flow id="flow_1" begin="0.00" departLane="3" departSpeed="11" departPos="base" from="-18" to="-21"  end="4800.00" vehsPerHour="1200.00" type="DEFAULT_VEHTYPE"/>
     <flow id="flow_2" begin="0.00" departLane="4" departSpeed="8" departPos="base" from="-18" to="-21"  end="4800.00" vehsPerHour="1200.00" type="DEFAULT_VEHTYPE"/>
     <flow id="flow_3" begin="0.00" departLane="3" departSpeed="11" departPos="base" from="21" to="18"  end="4800.00" vehsPerHour="1200.00" type="DEFAULT_VEHTYPE"/>
     <flow id="flow_4" begin="0.00" departLane="4" departSpeed="8" departPos="base" from="21" to="18"  end="4800.00" vehsPerHour="1200.00" type="DEFAULT_VEHTYPE"/>
</routes>