<routes>
    <trip depart="0.0" departLane="best" departPos="random" departSpeed="max" from="-6" id="0" to="11" via="-0 21 -20 -3 -16"/>
    <trip depart="0.0" departLane="best" departPos="random" departSpeed="max" from="-15" id="1" to="-3" via="-13 -6 10 -16 10"/>
    <trip depart="0.0" departLane="best" departPos="random" departSpeed="max" from="8" id="2" to="18" via="-12 9 -5 0 -14"/>
    <trip depart="0.0" departLane="best" departPos="random" departSpeed="max" from="-16" id="3" to="19" via="-22 -1 -22 8 9"/>
    <trip depart="0.0" departLane="best" departPos="random" departSpeed="max" from="-0" id="4" to="-6" via="7 4 2 -16 -12"/>
    <trip depart="0.0" departLane="best" departPos="random" departSpeed="max" from="4" id="5" to="21" via="11 18 -18 1 17"/>
    <trip depart="0.0" departLane="best" departPos="random" departSpeed="max" from="21" id="6" to="-16" via="-18 4 -17 20 10"/>
    <trip depart="0.0" departLane="best" departPos="random" departSpeed="max" from="12" id="7" to="22" via="0 8 -1 -15 9"/>
    <trip depart="0.0" departLane="best" departPos="random" departSpeed="max" from="-14" id="8" to="17" via="-18 1 -15 -21 -10"/>
    <trip depart="0.0" departLane="best" departPos="random" departSpeed="max" from="-11" id="9" to="16" via="9 6 20 2 -3"/>
    <trip depart="0.0" departLane="best" departPos="random" departSpeed="max" from="2" id="10" to="-6" via="-9 -10 13 -21 13"/>
    <trip depart="0.0" departLane="best" departPos="random" departSpeed="max" from="7" id="11" to="-15" via="-17 2 17 10 -11"/>
    <trip depart="0.0" departLane="best" departPos="random" departSpeed="max" from="8" id="12" to="-0" via="-18 -15 -20 1 0"/>
    <trip depart="0.0" departLane="best" departPos="random" departSpeed="max" from="-0" id="13" to="0" via="-9 -16 12 20 -12"/>
    <trip depart="0.0" departLane="best" departPos="random" departSpeed="max" from="-5" id="14" to="-1" via="20 7 -6 -19 4"/>
    <trip depart="0.0" departLane="best" departPos="random" departSpeed="max" from="-22" id="15" to="-6" via="-5 -16 16 0 -19"/>
    <trip depart="0.0" departLane="best" departPos="random" departSpeed="max" from="16" id="16" to="-17" via="-21 -11 -8 -16 13"/>
    <trip depart="0.0" departLane="best" departPos="random" departSpeed="max" from="-14" id="17" to="15" via="5 -22 -20 1 16"/>
    <trip depart="0.0" departLane="best" departPos="random" departSpeed="max" from="20" id="18" to="13" via="-19 -6 -3 0 11"/>
    <trip depart="0.0" departLane="best" departPos="random" departSpeed="max" from="-11" id="19" to="-5" via="-4 17 -1 19 16"/>
    <trip depart="0.0" departLane="best" departPos="random" departSpeed="max" from="-7" id="20" to="-22" via="-2 18 -9 -2 -1"/>
    <trip depart="0.0" departLane="best" departPos="random" departSpeed="max" from="6" id="21" to="-16" via="16 13 6 -1 12"/>
    <trip depart="0.0" departLane="best" departPos="random" departSpeed="max" from="-5" id="22" to="-11" via="-16 -3 5 18 22"/>
    <trip depart="0.0" departLane="best" departPos="random" departSpeed="max" from="-20" id="23" to="-18" via="20 -1 -16 -11 21"/>
    <trip depart="0.0" departLane="best" departPos="random" departSpeed="max" from="-6" id="24" to="-21" via="-0 -13 0 20 -22"/>
    <trip depart="0.0" departLane="best" departPos="random" departSpeed="max" from="-1" id="25" to="8" via="-12 -14 -17 11 -3"/>
    <trip depart="0.0" departLane="best" departPos="random" departSpeed="max" from="-20" id="26" to="-5" via="3 -12 1 10 15"/>
    <trip depart="0.0" departLane="best" departPos="random" departSpeed="max" from="1" id="27" to="-15" via="2 -14 1 12 2"/>
    <trip depart="0.0" departLane="best" departPos="random" departSpeed="max" from="-6" id="28" to="15" via="-1 15 3 -3 21"/>
    <trip depart="0.0" departLane="best" departPos="random" departSpeed="max" from="-0" id="29" to="11" via="-8 -10 -21 20 -13"/>
    <trip depart="0.0" departLane="best" departPos="random" departSpeed="max" from="-10" id="30" to="-21" via="-13 7 -12 -16 7"/>
    <trip depart="0.0" departLane="best" departPos="random" departSpeed="max" from="-17" id="31" to="19" via="-12 -9 -10 -18 -18"/>
    <trip depart="0.0" departLane="best" departPos="random" departSpeed="max" from="-15" id="32" to="5" via="12 -19 9 9 6"/>
    <trip depart="0.0" departLane="best" departPos="random" departSpeed="max" from="10" id="33" to="-0" via="6 14 -15 18 3"/>
    <trip depart="0.0" departLane="best" departPos="random" departSpeed="max" from="-16" id="34" to="-18" via="20 2 10 -13 -2"/>
    <trip depart="0.0" departLane="best" departPos="random" departSpeed="max" from="9" id="35" to="14" via="-18 -4 16 15 10"/>
    <trip depart="0.0" departLane="best" departPos="random" departSpeed="max" from="3" id="36" to="-3" via="6 -12 -1 6 5"/>
    <trip depart="0.0" departLane="best" departPos="random" departSpeed="max" from="-5" id="37" to="11" via="16 -6 -13 -19 -20"/>
    <trip depart="0.0" departLane="best" departPos="random" departSpeed="max" from="-15" id="38" to="20" via="18 8 -4 11 14"/>
    <trip depart="0.0" departLane="best" departPos="random" departSpeed="max" from="13" id="39" to="16" via="0 18 -1 7 5"/>
    <trip depart="0.0" departLane="best" departPos="random" departSpeed="max" from="-17" id="40" to="-19" via="13 -1 -5 -17 10"/>
    <trip depart="0.0" departLane="best" departPos="random" departSpeed="max" from="-12" id="41" to="20" via="20 -19 10 -0 10"/>
    <trip depart="0.0" departLane="best" departPos="random" departSpeed="max" from="20" id="42" to="-17" via="-22 -13 13 -21 -20"/>
    <trip depart="0.0" departLane="best" departPos="random" departSpeed="max" from="-5" id="43" to="11" via="16 -5 14 18 21"/>
    <trip depart="0.0" departLane="best" departPos="random" departSpeed="max" from="9" id="44" to="6" via="0 1 15 8 17"/>
    <trip depart="0.0" departLane="best" departPos="random" departSpeed="max" from="-15" id="45" to="-21" via="-6 17 18 22 -2"/>
    <trip depart="0.0" departLane="best" departPos="random" departSpeed="max" from="-5" id="46" to="-18" via="-5 -12 -4 14 19"/>
    <trip depart="0.0" departLane="best" departPos="random" departSpeed="max" from="13" id="47" to="6" via="19 -15 -0 -15 16"/>
    <trip depart="0.0" departLane="best" departPos="random" departSpeed="max" from="-4" id="48" to="12" via="-21 13 -21 -1 -19"/>
    <trip depart="0.0" departLane="best" departPos="random" departSpeed="max" from="-8" id="49" to="16" via="-22 -5 -14 2 -4"/>
    <trip depart="0.0" departLane="best" departPos="random" departSpeed="max" from="11" id="50" to="19" via="5 20 -14 -7 -0"/>
    <trip depart="0.0" departLane="best" departPos="random" departSpeed="max" from="-18" id="51" to="12" via="8 -18 0 -9 22"/>
    <trip depart="0.0" departLane="best" departPos="random" departSpeed="max" from="4" id="52" to="16" via="-21 -12 -16 -10 17"/>
    <trip depart="0.0" departLane="best" departPos="random" departSpeed="max" from="19" id="53" to="-22" via="2 -13 -10 15 -0"/>
    <trip depart="0.0" departLane="best" departPos="random" departSpeed="max" from="12" id="54" to="-21" via="15 13 7 8 -21"/>
    <trip depart="0.0" departLane="best" departPos="random" departSpeed="max" from="-0" id="55" to="16" via="-13 -7 14 -18 -12"/>
    <trip depart="0.0" departLane="best" departPos="random" departSpeed="max" from="15" id="56" to="6" via="0 -14 -17 -2 3"/>
    <trip depart="0.0" departLane="best" departPos="random" departSpeed="max" from="-10" id="57" to="21" via="7 5 20 -18 8"/>
    <trip depart="0.0" departLane="best" departPos="random" departSpeed="max" from="-14" id="58" to="15" via="-1 -4 11 -1 7"/>
    <trip depart="0.0" departLane="best" departPos="random" departSpeed="max" from="0" id="59" to="21" via="-9 -12 19 19 -1"/>
    <trip depart="0.0" departLane="best" departPos="random" departSpeed="max" from="-3" id="60" to="-11" via="6 -22 -17 -17 -22"/>
    <trip depart="0.0" departLane="best" departPos="random" departSpeed="max" from="-15" id="61" to="-14" via="-8 10 10 -14 -1"/>
    <trip depart="0.0" departLane="best" departPos="random" departSpeed="max" from="5" id="62" to="-19" via="-14 16 10 12 7"/>
    <trip depart="0.0" departLane="best" departPos="random" departSpeed="max" from="17" id="63" to="6" via="0 -3 -5 -17 -12"/>
    <trip depart="0.0" departLane="best" departPos="random" departSpeed="max" from="14" id="64" to="20" via="-15 20 -16 15 11"/>
    <trip depart="0.0" departLane="best" departPos="random" departSpeed="max" from="-5" id="65" to="-14" via="7 18 -7 -13 -19"/>
    <trip depart="0.0" departLane="best" departPos="random" departSpeed="max" from="0" id="66" to="20" via="21 19 14 -6 -2"/>
    <trip depart="0.0" departLane="best" departPos="random" departSpeed="max" from="15" id="67" to="-4" via="15 10 20 12 -2"/>
    <trip depart="0.0" departLane="best" departPos="random" departSpeed="max" from="-21" id="68" to="-9" via="-20 5 17 13 -7"/>
    <trip depart="0.0" departLane="best" departPos="random" departSpeed="max" from="-12" id="69" to="5" via="-8 12 -3 0 9"/>
    <trip depart="0.0" departLane="best" departPos="random" departSpeed="max" from="-11" id="70" to="-14" via="7 20 21 21 -17"/>
    <trip depart="0.0" departLane="best" departPos="random" departSpeed="max" from="14" id="71" to="-2" via="22 -12 -0 7 5"/>
    <trip depart="0.0" departLane="best" departPos="random" departSpeed="max" from="22" id="72" to="14" via="-20 22 -0 12 -18"/>
    <trip depart="0.0" departLane="best" departPos="random" departSpeed="max" from="-1" id="73" to="-15" via="14 -12 -7 -11 -4"/>
    <trip depart="0.0" departLane="best" departPos="random" departSpeed="max" from="-22" id="74" to="-5" via="-8 15 14 1 3"/>
    <trip depart="0.0" departLane="best" departPos="random" departSpeed="max" from="-14" id="75" to="-22" via="16 -3 6 -4 -0"/>
    <trip depart="0.0" departLane="best" departPos="random" departSpeed="max" from="8" id="76" to="-17" via="-8 21 -3 12 -11"/>
    <trip depart="0.0" departLane="best" departPos="random" departSpeed="max" from="-12" id="77" to="-2" via="-5 -21 10 14 -19"/>
    <trip depart="0.0" departLane="best" departPos="random" departSpeed="max" from="-1" id="78" to="-0" via="-13 -4 5 -16 -5"/>
    <trip depart="0.0" departLane="best" departPos="random" departSpeed="max" from="12" id="79" to="-16" via="-6 -22 -4 -2 -5"/>
    <trip depart="0.0" departLane="best" departPos="random" departSpeed="max" from="17" id="80" to="-8" via="6 5 -3 -0 2"/>
    <trip depart="0.0" departLane="best" departPos="random" departSpeed="max" from="10" id="81" to="-1" via="15 21 0 -6 -14"/>
    <trip depart="0.0" departLane="best" departPos="random" departSpeed="max" from="-15" id="82" to="-5" via="-15 7 11 -1 -21"/>
    <trip depart="0.0" departLane="best" departPos="random" departSpeed="max" from="22" id="83" to="20" via="-6 10 -2 -21 -11"/>
    <trip depart="0.0" departLane="best" departPos="random" departSpeed="max" from="-9" id="84" to="20" via="18 11 -12 -2 -21"/>
    <trip depart="0.0" departLane="best" departPos="random" departSpeed="max" from="-22" id="85" to="-22" via="8 20 16 1 16"/>
    <trip depart="0.0" departLane="best" departPos="random" departSpeed="max" from="-12" id="86" to="-6" via="3 -8 8 18 11"/>
    <trip depart="0.0" departLane="best" departPos="random" departSpeed="max" from="16" id="87" to="-12" via="-19 -3 -21 21 7"/>
    <trip depart="0.0" departLane="best" departPos="random" departSpeed="max" from="-1" id="88" to="15" via="-3 16 -7 19 8"/>
    <trip depart="0.0" departLane="best" departPos="random" departSpeed="max" from="15" id="89" to="16" via="-14 11 13 -16 -1"/>
    <trip depart="0.0" departLane="best" departPos="random" departSpeed="max" from="9" id="90" to="21" via="14 -17 4 -21 -22"/>
    <trip depart="0.0" departLane="best" departPos="random" departSpeed="max" from="20" id="91" to="-18" via="6 4 -0 -18 11"/>
    <trip depart="0.0" departLane="best" departPos="random" departSpeed="max" from="3" id="92" to="-8" via="18 19 7 17 8"/>
    <trip depart="0.0" departLane="best" departPos="random" departSpeed="max" from="-14" id="93" to="-14" via="0 7 13 -21 -12"/>
    <trip depart="0.0" departLane="best" departPos="random" departSpeed="max" from="-13" id="94" to="15" via="17 -22 -6 8 -22"/>
    <trip depart="0.0" departLane="best" departPos="random" departSpeed="max" from="-3" id="95" to="10" via="-4 -6 -7 -13 14"/>
    <trip depart="0.0" departLane="best" departPos="random" departSpeed="max" from="-13" id="96" to="0" via="8 9 -2 -22 2"/>
    <trip depart="0.0" departLane="best" departPos="random" departSpeed="max" from="11" id="97" to="4" via="2 19 -2 -9 21"/>
    <trip depart="0.0" departLane="best" departPos="random" departSpeed="max" from="3" id="98" to="-19" via="20 15 -1 -3 17"/>
    <trip depart="0.0" departLane="best" departPos="random" departSpeed="max" from="-10" id="99" to="-1" via="12 2 9 18 -7"/>
    <trip depart="0.0" departLane="best" departPos="random" departSpeed="max" from="16" id="100" to="12" via="5 0 10 -12 -21"/>
    <trip depart="0.0" departLane="best" departPos="random" departSpeed="max" from="20" id="101" to="16" via="-21 22 12 10 -17"/>
    <trip depart="0.0" departLane="best" departPos="random" departSpeed="max" from="-14" id="102" to="5" via="-6 4 3 7 -16"/>
    <trip depart="0.0" departLane="best" departPos="random" departSpeed="max" from="-8" id="103" to="-18" via="-15 5 7 8 -3"/>
    <trip depart="0.0" departLane="best" departPos="random" departSpeed="max" from="6" id="104" to="21" via="17 6 18 9 18"/>
    <trip depart="0.0" departLane="best" departPos="random" departSpeed="max" from="6" id="105" to="14" via="-6 6 -6 8 1"/>
    <trip depart="0.0" departLane="best" departPos="random" departSpeed="max" from="-0" id="106" to="-13" via="-22 -2 -0 -21 -19"/>
    <trip depart="0.0" departLane="best" departPos="random" departSpeed="max" from="-19" id="107" to="17" via="3 -17 17 9 -0"/>
    <trip depart="0.0" departLane="best" departPos="random" departSpeed="max" from="-14" id="108" to="20" via="-16 -21 6 4 -12"/>
    <trip depart="0.0" departLane="best" departPos="random" departSpeed="max" from="-11" id="109" to="-6" via="-3 9 4 -13 11"/>
    <trip depart="0.0" departLane="best" departPos="random" departSpeed="max" from="16" id="110" to="-10" via="3 10 6 5 -15"/>
    <trip depart="0.0" departLane="best" departPos="random" departSpeed="max" from="-17" id="111" to="12" via="0 16 3 18 15"/>
    <trip depart="0.0" departLane="best" departPos="random" departSpeed="max" from="15" id="112" to="16" via="-5 15 22 3 18"/>
    <trip depart="0.0" departLane="best" departPos="random" departSpeed="max" from="-11" id="113" to="22" via="-22 -7 -21 -17 -4"/>
    <trip depart="0.0" departLane="best" departPos="random" departSpeed="max" from="-2" id="114" to="-0" via="7 -0 -6 18 19"/>
    <trip depart="0.0" departLane="best" departPos="random" departSpeed="max" from="-13" id="115" to="-12" via="-11 10 -12 -5 -2"/>
    <trip depart="0.0" departLane="best" departPos="random" departSpeed="max" from="-4" id="116" to="16" via="-7 11 -22 -11 -22"/>
    <trip depart="0.0" departLane="best" departPos="random" departSpeed="max" from="-0" id="117" to="-12" via="1 -0 3 -17 1"/>
    <trip depart="0.0" departLane="best" departPos="random" departSpeed="max" from="10" id="118" to="21" via="20 6 20 5 -0"/>
    <trip depart="0.0" departLane="best" departPos="random" departSpeed="max" from="-10" id="119" to="-11" via="4 9 18 12 18"/>
    <trip depart="0.0" departLane="best" departPos="random" departSpeed="max" from="3" id="120" to="-4" via="-12 -18 -2 16 -5"/>
    <trip depart="0.0" departLane="best" departPos="random" departSpeed="max" from="0" id="121" to="-12" via="19 22 22 -20 -10"/>
    <trip depart="0.0" departLane="best" departPos="random" departSpeed="max" from="-13" id="122" to="-19" via="19 -11 19 -0 16"/>
    <trip depart="0.0" departLane="best" departPos="random" departSpeed="max" from="14" id="123" to="5" via="19 15 -11 -0 -4"/>
    <trip depart="0.0" departLane="best" departPos="random" departSpeed="max" from="-8" id="124" to="6" via="-2 -8 21 -17 -13"/>
    <trip depart="0.0" departLane="best" departPos="random" departSpeed="max" from="-6" id="125" to="-19" via="-7 -21 -19 3 20"/>
    <trip depart="0.0" departLane="best" departPos="random" departSpeed="max" from="18" id="126" to="3" via="6 -6 9 -12 22"/>
    <trip depart="0.0" departLane="best" departPos="random" departSpeed="max" from="-19" id="127" to="20" via="-2 -2 -14 21 17"/>
    <trip depart="0.0" departLane="best" departPos="random" departSpeed="max" from="14" id="128" to="1" via="-2 -12 -19 20 -0"/>
    <trip depart="0.0" departLane="best" departPos="random" departSpeed="max" from="-21" id="129" to="3" via="-20 -22 12 -15 -15"/>
    <trip depart="0.0" departLane="best" departPos="random" departSpeed="max" from="19" id="130" to="-7" via="-3 -19 11 6 20"/>
    <trip depart="0.0" departLane="best" departPos="random" departSpeed="max" from="14" id="131" to="4" via="-3 17 0 -1 16"/>
    <trip depart="0.0" departLane="best" departPos="random" departSpeed="max" from="-9" id="132" to="-20" via="-15 -20 -16 22 18"/>
    <trip depart="0.0" departLane="best" departPos="random" departSpeed="max" from="-20" id="133" to="-11" via="-13 -7 8 19 7"/>
    <trip depart="0.0" departLane="best" departPos="random" departSpeed="max" from="6" id="134" to="19" via="5 21 -13 3 8"/>
    <trip depart="0.0" departLane="best" departPos="random" departSpeed="max" from="0" id="135" to="-0" via="-22 4 12 -21 -11"/>
    <trip depart="0.0" departLane="best" departPos="random" departSpeed="max" from="17" id="136" to="-8" via="-20 -14 -21 -8 22"/>
    <trip depart="0.0" departLane="best" departPos="random" departSpeed="max" from="-13" id="137" to="-4" via="22 16 10 5 -5"/>
    <trip depart="0.0" departLane="best" departPos="random" departSpeed="max" from="-10" id="138" to="-7" via="17 13 7 -0 -5"/>
    <trip depart="0.0" departLane="best" departPos="random" departSpeed="max" from="-6" id="139" to="-6" via="-1 21 -1 14 -21"/>
</routes>
