<?xml version="1.0" encoding="UTF-8"?>

<!-- generated on 2023-06-03 12:56:51 by Eclipse SUMO netconvert Version 1.16.0
<configuration xmlns:xsi="http://www.w3.org/2001/XMLSchema-instance" xsi:noNamespaceSchemaLocation="http://sumo.dlr.de/xsd/netconvertConfiguration.xsd">

    <input>
        <opendrive-files value="Town07.xodr"/>
    </input>

    <output>
        <output-file value="C:\Apps\OpenCDA\opencda\assets\custom_single_town07_cosim\custom_single_town07_cosim.net.xml"/>
    </output>

    <junctions>
        <no-turnarounds.except-deadend value="true"/>
    </junctions>

    <formats>
        <opendrive.import-all-lanes value="true"/>
    </formats>

</configuration>
-->

<net version="1.16" junctionCornerDetail="5" rectangularLaneCut="true" limitTurnSpeed="5.50" xmlns:xsi="http://www.w3.org/2001/XMLSchema-instance" xsi:noNamespaceSchemaLocation="http://sumo.dlr.de/xsd/net_file.xsd">

    <location netOffset="203.03,122.66" convBoundary="0.00,0.00,287.14,370.03" origBoundary="0.000000,0.000000,0.000000,0.000000" projParameter="+proj=tmerc +lat_0=0 +lon_0=0 +k=1 +x_0=0 +y_0=0 +datum=WGS84 +units=m  +vunits=m +no_defs "/>

    <type id="bidirectional" priority="1" speed="1.39" disallow="pedestrian tram rail_urban rail rail_electric rail_fast ship" width="3.65"/>
    <type id="border" priority="0" speed="1.39" disallow="all" discard="1" width="0.10"/>
    <type id="driving" priority="1" speed="13.89" disallow="pedestrian tram rail_urban rail rail_electric rail_fast ship" width="3.65"/>
    <type id="entry" priority="1" speed="22.22" disallow="pedestrian tram rail_urban rail rail_electric rail_fast ship" width="3.65"/>
    <type id="exit" priority="1" speed="22.22" disallow="pedestrian tram rail_urban rail rail_electric rail_fast ship" width="3.65"/>
    <type id="median" priority="0" speed="1.39" disallow="all" discard="1" width="0.10"/>
    <type id="mwyEntry" priority="1" speed="22.22" allow="private emergency authority army vip passenger hov taxi bus coach delivery truck trailer motorcycle evehicle custom1 custom2" width="3.65"/>
    <type id="mwyExit" priority="1" speed="22.22" allow="private emergency authority army vip passenger hov taxi bus coach delivery truck trailer motorcycle evehicle custom1 custom2" width="3.65"/>
    <type id="none" priority="0" speed="1.39" disallow="all" discard="1" width="1.00"/>
    <type id="offRamp" priority="1" speed="22.22" allow="private emergency authority army vip passenger hov taxi bus coach delivery truck trailer motorcycle evehicle custom1 custom2" width="3.65"/>
    <type id="onRamp" priority="1" speed="22.22" allow="private emergency authority army vip passenger hov taxi bus coach delivery truck trailer motorcycle evehicle custom1 custom2" width="3.65"/>
    <type id="parking" priority="1" speed="1.39" disallow="pedestrian tram rail_urban rail rail_electric rail_fast ship" width="2.50"/>
    <type id="rail" priority="3" speed="33.33" allow="rail_urban rail rail_electric rail_fast" width="3.65"/>
    <type id="restricted" priority="0" speed="13.89" disallow="all" width="3.65"/>
    <type id="roadWorks" priority="0" speed="1.39" allow="authority" width="3.65"/>
    <type id="shoulder" priority="0" speed="1.39" disallow="all" discard="1" width="1.00"/>
    <type id="special1" priority="1" speed="22.22" allow="custom1" discard="1" width="3.65"/>
    <type id="special2" priority="1" speed="22.22" allow="custom2" discard="1" width="3.65"/>
    <type id="special3" priority="1" speed="22.22" allow="custom1 custom2" discard="1" width="3.65"/>
    <type id="stop" priority="1" speed="13.89" disallow="pedestrian tram rail_urban rail rail_electric rail_fast ship" width="3.65"/>
    <type id="tram" priority="2" speed="13.89" allow="tram" width="3.65"/>

    <edge id=":123_0" function="internal">
        <lane id=":123_0_0" index="0" disallow="pedestrian tram rail_urban rail rail_electric rail_fast ship" speed="6.46" length="8.91" width="3.10" shape="50.24,79.34,0.00 49.86,76.94,0.00 48.80,75.24,0.00 47.06,74.22,0.00 44.63,73.90"/>
    </edge>
    <edge id=":123_1" function="internal">
        <lane id=":123_1_0" index="0" disallow="pedestrian tram rail_urban rail rail_electric rail_fast ship" speed="7.91" length="13.90" width="3.10" shape="50.24,79.34,0.00 50.73,75.58,0.00 52.33,72.88,0.00 55.01,71.25,0.00 58.80,70.68"/>
    </edge>
    <edge id=":123_2" function="internal">
        <lane id=":123_2_0" index="0" disallow="all" speed="1.39" length="14.20" width="0.50" shape="58.84,75.58 44.64,75.70"/>
    </edge>
    <edge id=":123_3" function="internal">
        <lane id=":123_3_0" index="0" disallow="pedestrian tram rail_urban rail rail_electric rail_fast ship" speed="6.44" length="2.94" width="3.10" shape="58.83,73.78 56.40,74.14,0.00 55.98,74.39,0.00"/>
    </edge>
    <edge id=":123_4" function="internal">
        <lane id=":123_4_0" index="0" disallow="pedestrian tram rail_urban rail rail_electric rail_fast ship" speed="13.89" length="14.20" width="3.10" shape="58.83,73.78 44.63,73.90"/>
    </edge>
    <edge id=":123_8" function="internal">
        <lane id=":123_8_0" index="0" disallow="pedestrian tram rail_urban rail rail_electric rail_fast ship" speed="6.44" length="5.95" width="3.10" shape="55.98,74.39,0.00 54.68,75.18,0.00 53.65,76.90,0.00 53.34,79.31,0.00"/>
    </edge>
    <edge id=":123_5" function="internal">
        <lane id=":123_5_0" index="0" disallow="all" speed="1.39" length="14.20" width="0.50" shape="44.58,69.00 58.78,68.88"/>
        <lane id=":123_5_1" index="1" disallow="pedestrian tram rail_urban rail rail_electric rail_fast ship" speed="13.89" length="14.20" width="3.10" shape="44.60,70.80 58.80,70.68"/>
    </edge>
    <edge id=":123_7" function="internal">
        <lane id=":123_7_0" index="0" disallow="pedestrian tram rail_urban rail rail_electric rail_fast ship" speed="7.92" length="3.93" width="3.10" shape="44.60,70.80 48.38,71.30,0.00 48.48,71.36,0.00"/>
    </edge>
    <edge id=":123_9" function="internal">
        <lane id=":123_9_0" index="0" disallow="pedestrian tram rail_urban rail rail_electric rail_fast ship" speed="7.92" length="9.97" width="3.10" shape="48.48,71.36,0.00 51.10,72.89,0.00 52.75,75.56,0.00 53.34,79.31,0.00"/>
    </edge>
    <edge id=":146_0" function="internal">
        <lane id=":146_0_0" index="0" disallow="pedestrian tram rail_urban rail rail_electric rail_fast ship" speed="7.36" length="11.33" width="3.20" shape="10.83,74.19 7.67,74.64 5.36,75.90 3.91,77.99 3.31,80.89"/>
    </edge>
    <edge id=":146_1" function="internal">
        <lane id=":146_1_0" index="0" disallow="pedestrian tram rail_urban rail rail_electric rail_fast ship" speed="8.58" length="16.50" width="3.20" shape="10.83,74.19 6.32,73.60 3.09,71.72 1.13,68.56 0.44,64.11"/>
    </edge>
    <edge id=":146_2" function="internal">
        <lane id=":146_2_0" index="0" disallow="all" speed="1.39" length="16.92" width="0.50" shape="5.49,64.06 5.16,80.99"/>
    </edge>
    <edge id=":146_3" function="internal">
        <lane id=":146_3_0" index="0" disallow="pedestrian tram rail_urban rail rail_electric rail_fast ship" speed="7.24" length="3.33" width="3.10" shape="3.64,64.08 4.11,67.17 4.22,67.35"/>
    </edge>
    <edge id=":146_4" function="internal">
        <lane id=":146_4_0" index="0" disallow="pedestrian tram rail_urban rail rail_electric rail_fast ship" speed="13.89" length="16.81" width="3.20" shape="3.64,64.08 3.31,80.89"/>
    </edge>
    <edge id=":146_8" function="internal">
        <lane id=":146_8_0" index="0" disallow="pedestrian tram rail_urban rail rail_electric rail_fast ship" speed="7.24" length="8.09" width="3.10" shape="4.22,67.35 5.47,69.37 7.70,70.68 10.80,71.09"/>
    </edge>
    <edge id=":146_5" function="internal">
        <lane id=":146_5_0" index="0" disallow="all" speed="1.39" length="16.57" width="0.50" shape="-1.73,80.64 -1.41,64.13"/>
        <lane id=":146_5_1" index="1" disallow="pedestrian tram rail_urban rail rail_electric rail_fast ship" speed="13.89" length="16.57" width="3.20" shape="0.12,80.73 0.44,64.11"/>
    </edge>
    <edge id=":146_7" function="internal">
        <lane id=":146_7_0" index="0" disallow="pedestrian tram rail_urban rail rail_electric rail_fast ship" speed="8.70" length="3.97" width="3.10" shape="0.12,80.73 0.91,76.84"/>
    </edge>
    <edge id=":146_9" function="internal">
        <lane id=":146_9_0" index="0" disallow="pedestrian tram rail_urban rail rail_electric rail_fast ship" speed="8.70" length="12.23" width="3.10" shape="0.91,76.84 0.97,76.55 3.03,73.55 6.31,71.73 10.80,71.09"/>
    </edge>
    <edge id=":169_0" function="internal">
        <lane id=":169_0_0" index="0" disallow="all" speed="1.39" length="16.80" width="0.50" shape="49.47,166.03,0.23 49.27,149.23,0.27"/>
    </edge>
    <edge id=":169_1" function="internal">
        <lane id=":169_1_0" index="0" disallow="pedestrian tram rail_urban rail rail_electric rail_fast ship" speed="7.15" length="11.13" width="3.10" shape="51.27,166.01,0.23 50.80,163.04,0.23 49.46,160.93,0.23 47.26,159.68,0.23 44.20,159.28,0.23"/>
    </edge>
    <edge id=":169_2" function="internal">
        <lane id=":169_2_0" index="0" disallow="pedestrian tram rail_urban rail rail_electric rail_fast ship" speed="13.89" length="16.80" width="3.10" shape="51.27,166.01,0.23 51.07,149.21,0.27"/>
    </edge>
    <edge id=":169_3" function="internal">
        <lane id=":169_3_0" index="0" disallow="pedestrian tram rail_urban rail rail_electric rail_fast ship" speed="8.53" length="16.34" width="3.10" shape="51.27,166.01,0.23 51.87,161.68,0.20 53.79,158.57,0.17 57.02,156.70,0.14 61.56,156.04,0.11"/>
    </edge>
    <edge id=":169_4" function="internal">
        <lane id=":169_4_0" index="0" disallow="all" speed="1.39" length="17.39" width="0.50" shape="61.60,160.94,0.11 44.21,161.08,0.23"/>
    </edge>
    <edge id=":169_5" function="internal">
        <lane id=":169_5_0" index="0" disallow="pedestrian tram rail_urban rail rail_electric rail_fast ship" speed="7.19" length="3.57" width="3.10" shape="61.58,159.14,0.11 58.40,159.59,0.14 58.09,159.77,0.15"/>
    </edge>
    <edge id=":169_6" function="internal">
        <lane id=":169_6_0" index="0" disallow="pedestrian tram rail_urban rail rail_electric rail_fast ship" speed="13.89" length="17.39" width="3.10" shape="61.58,159.14,0.11 44.20,159.28,0.23"/>
    </edge>
    <edge id=":169_7" function="internal">
        <lane id=":169_7_0" index="0" disallow="pedestrian tram rail_urban rail rail_electric rail_fast ship" speed="8.59" length="4.59" width="3.10" shape="61.58,159.14,0.11 57.03,158.55,0.15"/>
    </edge>
    <edge id=":169_16" function="internal">
        <lane id=":169_16_0" index="0" disallow="pedestrian tram rail_urban rail rail_electric rail_fast ship" speed="7.19" length="7.76" width="3.10" shape="58.09,159.77,0.15 56.14,160.88,0.17 54.79,163.00,0.20 54.37,165.97,0.23"/>
    </edge>
    <edge id=":169_17" function="internal">
        <lane id=":169_17_0" index="0" disallow="pedestrian tram rail_urban rail rail_electric rail_fast ship" speed="8.59" length="11.89" width="3.10" shape="57.03,158.55,0.15 53.76,156.70,0.19 51.77,153.58,0.23 51.07,149.21,0.27"/>
    </edge>
    <edge id=":169_8" function="internal">
        <lane id=":169_8_0" index="0" disallow="all" speed="1.39" length="16.80" width="0.50" shape="55.97,149.15,0.27 56.17,165.95,0.23"/>
    </edge>
    <edge id=":169_9" function="internal">
        <lane id=":169_9_0" index="0" disallow="pedestrian tram rail_urban rail rail_electric rail_fast ship" speed="7.26" length="11.50" width="3.10" shape="54.17,149.17,0.27 54.67,152.20,0.23 56.06,154.35,0.19 58.36,155.63,0.15 61.56,156.04,0.11"/>
    </edge>
    <edge id=":169_10" function="internal">
        <lane id=":169_10_0" index="0" disallow="pedestrian tram rail_urban rail rail_electric rail_fast ship" speed="13.89" length="16.80" width="3.10" shape="54.17,149.17,0.27 54.37,165.97,0.23"/>
    </edge>
    <edge id=":169_11" function="internal">
        <lane id=":169_11_0" index="0" disallow="pedestrian tram rail_urban rail rail_electric rail_fast ship" speed="8.49" length="16.21" width="3.10" shape="54.17,149.17,0.27 53.59,153.56,0.26 51.74,156.71,0.25 48.61,158.62,0.24 44.20,159.28,0.23"/>
    </edge>
    <edge id=":169_12" function="internal">
        <lane id=":169_12_0" index="0" disallow="all" speed="1.39" length="17.39" width="0.50" shape="44.16,154.38,0.23 61.55,154.24,0.11"/>
    </edge>
    <edge id=":169_13" function="internal">
        <lane id=":169_13_0" index="0" disallow="pedestrian tram rail_urban rail rail_electric rail_fast ship" speed="7.15" length="3.40" width="3.10" shape="44.17,156.18,0.23 47.22,155.72,0.24 47.49,155.56,0.24"/>
    </edge>
    <edge id=":169_14" function="internal">
        <lane id=":169_14_0" index="0" disallow="pedestrian tram rail_urban rail rail_electric rail_fast ship" speed="13.89" length="17.39" width="3.10" shape="44.17,156.18,0.23 61.56,156.04,0.11"/>
    </edge>
    <edge id=":169_15" function="internal">
        <lane id=":169_15_0" index="0" disallow="pedestrian tram rail_urban rail rail_electric rail_fast ship" speed="8.50" length="4.46" width="3.10" shape="44.17,156.18,0.23 48.59,156.76,0.23"/>
    </edge>
    <edge id=":169_18" function="internal">
        <lane id=":169_18_0" index="0" disallow="pedestrian tram rail_urban rail rail_electric rail_fast ship" speed="7.15" length="7.80" width="3.10" shape="47.49,155.56,0.24 49.39,154.41,0.25 50.67,152.24,0.26 51.07,149.21,0.27"/>
    </edge>
    <edge id=":169_19" function="internal">
        <lane id=":169_19_0" index="0" disallow="pedestrian tram rail_urban rail rail_electric rail_fast ship" speed="8.50" length="11.65" width="3.10" shape="48.59,156.76,0.23 51.76,158.59,0.23 53.69,161.66,0.23 54.37,165.97,0.23"/>
    </edge>
    <edge id=":17.16_0" function="internal">
        <lane id=":17.16_0_0" index="0" speed="13.89" length="5.27" width="2.00" shape="188.60,192.64 185.56,197.83"/>
        <lane id=":17.16_0_1" index="1" disallow="all" speed="1.39" length="5.27" width="0.63" shape="188.62,191.32 185.57,196.52"/>
        <lane id=":17.16_0_2" index="2" disallow="all" speed="1.39" length="5.27" width="0.50" shape="188.62,190.75 185.57,195.95"/>
        <lane id=":17.16_0_3" index="3" disallow="pedestrian tram rail_urban rail rail_electric rail_fast ship" speed="13.89" length="5.27" width="3.50" shape="188.64,188.75 185.64,188.72"/>
    </edge>
    <edge id=":17.16_4" function="internal">
        <lane id=":17.16_4_0" index="0" speed="13.89" length="3.00" width="2.00" shape="185.71,181.34 188.71,181.37"/>
        <lane id=":17.16_4_1" index="1" disallow="all" speed="1.39" length="3.00" width="0.63" shape="185.70,182.66 188.70,182.69"/>
        <lane id=":17.16_4_2" index="2" disallow="all" speed="1.39" length="3.00" width="0.50" shape="185.69,183.23 188.69,183.25"/>
        <lane id=":17.16_4_3" index="3" disallow="pedestrian tram rail_urban rail rail_electric rail_fast ship" speed="13.89" length="3.00" width="3.50" shape="185.67,185.23 188.67,185.25"/>
    </edge>
    <edge id=":18.17_0" function="internal">
        <lane id=":18.17_0_0" index="0" speed="13.89" length="5.27" width="2.00" shape="116.07,197.19 113.12,191.94"/>
        <lane id=":18.17_0_1" index="1" disallow="all" speed="1.39" length="5.27" width="0.63" shape="116.08,195.87 113.13,190.62"/>
        <lane id=":18.17_0_2" index="2" disallow="all" speed="1.39" length="5.27" width="0.50" shape="116.09,195.30 113.13,190.05"/>
        <lane id=":18.17_0_3" index="3" disallow="pedestrian tram rail_urban rail rail_electric rail_fast ship" speed="13.89" length="5.27" width="3.50" shape="116.15,188.08 113.15,188.05"/>
    </edge>
    <edge id=":18.17_4" function="internal">
        <lane id=":18.17_4_0" index="0" speed="13.89" length="2.99" width="2.00" shape="113.23,180.67 116.22,180.70"/>
        <lane id=":18.17_4_1" index="1" disallow="all" speed="1.39" length="2.99" width="0.63" shape="113.22,181.99 116.21,182.01"/>
        <lane id=":18.17_4_2" index="2" disallow="all" speed="1.39" length="2.99" width="0.50" shape="113.22,182.55 116.20,182.58"/>
        <lane id=":18.17_4_3" index="3" disallow="pedestrian tram rail_urban rail rail_electric rail_fast ship" speed="13.89" length="2.99" width="3.50" shape="113.20,184.55 116.19,184.58"/>
    </edge>
    <edge id=":26#1_0" function="internal">
        <lane id=":26#1_0_0" index="0" disallow="all" speed="1.39" length="3.25" width="0.50" shape="229.40,130.03,0.03 228.44,130.29,0.03 227.89,130.88,0.03 227.34,131.47,0.03 226.38,131.73,0.03"/>
        <lane id=":26#1_0_1" index="1" allow="emergency authority" speed="13.89" length="3.25" width="3.50" shape="229.40,128.89,0.03 228.50,129.02,0.03 227.90,129.31,0.03 227.31,129.60,0.03 226.40,129.73,0.03"/>
        <lane id=":26#1_0_2" index="2" disallow="pedestrian tram rail_urban rail rail_electric rail_fast ship" speed="13.89" length="3.25" width="3.50" shape="229.42,126.25,0.03 226.43,126.23,0.03"/>
    </edge>
    <edge id=":26#1_3" function="internal">
        <lane id=":26#1_3_0" index="0" speed="13.89" length="2.98" width="2.00" shape="226.50,118.84,0.03 229.48,118.87,0.03"/>
        <lane id=":26#1_3_1" index="1" disallow="all" speed="1.39" length="2.98" width="0.63" shape="226.49,120.16,0.03 229.47,120.18,0.03"/>
        <lane id=":26#1_3_2" index="2" disallow="all" speed="1.39" length="2.98" width="0.50" shape="226.48,120.73,0.03 229.46,120.75,0.03"/>
        <lane id=":26#1_3_3" index="3" disallow="pedestrian tram rail_urban rail rail_electric rail_fast ship" speed="13.89" length="2.98" width="3.50" shape="226.46,122.73,0.03 229.45,122.75,0.03"/>
    </edge>
    <edge id=":26.25_0" function="internal">
        <lane id=":26.25_0_0" index="0" disallow="all" speed="1.39" length="8.22" width="0.50" shape="238.10,128.23,0.03 235.66,128.54,0.03 234.04,129.16,0.03 232.42,129.78,0.03 229.99,130.04,0.03"/>
        <lane id=":26.25_0_1" index="1" disallow="pedestrian tram rail_urban rail rail_electric rail_fast ship" speed="13.89" length="8.22" width="3.50" shape="238.08,126.23,0.03 230.01,126.26,0.03"/>
    </edge>
    <edge id=":26.25_2" function="internal">
        <lane id=":26.25_2_0" index="0" speed="13.89" length="7.96" width="2.00" shape="230.07,118.87,0.03 237.99,118.85,0.03"/>
        <lane id=":26.25_2_1" index="1" disallow="all" speed="1.39" length="7.96" width="0.63" shape="230.06,120.19,0.03 238.01,120.17,0.03"/>
        <lane id=":26.25_2_2" index="2" disallow="all" speed="1.39" length="7.96" width="0.50" shape="230.05,120.76,0.03 238.01,120.73,0.03"/>
        <lane id=":26.25_2_3" index="3" disallow="pedestrian tram rail_urban rail rail_electric rail_fast ship" speed="13.89" length="7.96" width="3.50" shape="230.04,122.76,0.03 238.04,122.73,0.03"/>
    </edge>
    <edge id=":260_0" function="internal">
        <lane id=":260_0_0" index="0" disallow="pedestrian tram rail_urban rail rail_electric rail_fast ship" speed="7.98" length="14.52" width="3.50" shape="197.13,73.39 196.53,69.43,0.01 194.80,66.68,0.02 191.94,65.13,0.03 187.94,64.79,0.03"/>
    </edge>
    <edge id=":260_1" function="internal">
        <lane id=":260_1_0" index="0" disallow="pedestrian tram rail_urban rail rail_electric rail_fast ship" speed="9.62" length="20.12" width="3.50" shape="197.13,73.39 197.84,67.83,0.01 200.05,63.75,0.02 203.77,61.17,0.03 209.00,60.08,0.03"/>
    </edge>
    <edge id=":260_2" function="internal">
        <lane id=":260_2_0" index="0" disallow="pedestrian tram rail_urban rail rail_electric rail_fast ship" speed="8.30" length="14.67" width="3.50" shape="209.20,63.57,0.03 205.42,64.37,0.03 202.74,66.27,0.02 201.14,69.27,0.01 200.63,73.36"/>
    </edge>
    <edge id=":260_3" function="internal">
        <lane id=":260_3_0" index="0" disallow="pedestrian tram rail_urban rail rail_electric rail_fast ship" speed="13.89" length="21.29" width="3.50" shape="209.20,63.57,0.03 187.94,64.79,0.03"/>
    </edge>
    <edge id=":260_4" function="internal">
        <lane id=":260_4_0" index="0" disallow="all" speed="1.39" length="21.29" width="0.50" shape="187.63,59.29,0.03 208.88,58.08,0.03"/>
        <lane id=":260_4_1" index="1" disallow="pedestrian tram rail_urban rail rail_electric rail_fast ship" speed="13.89" length="21.29" width="3.50" shape="187.74,61.29,0.03 209.00,60.08,0.03"/>
    </edge>
    <edge id=":260_6" function="internal">
        <lane id=":260_6_0" index="0" disallow="pedestrian tram rail_urban rail rail_electric rail_fast ship" speed="9.35" length="20.37" width="3.50" shape="187.74,61.29,0.03 193.34,61.77,0.03 197.36,63.95,0.02 199.79,67.81,0.01 200.63,73.36"/>
    </edge>
    <edge id=":288_0" function="internal">
        <lane id=":288_0_0" index="0" disallow="all" speed="1.39" length="19.84" width="0.50" shape="196.96,291.10 196.79,271.26"/>
    </edge>
    <edge id=":288_1" function="internal">
        <lane id=":288_1_0" index="0" disallow="pedestrian tram rail_urban rail rail_electric rail_fast ship" speed="7.71" length="3.60" width="3.50" shape="198.96,291.08 198.37,287.91,0.03 198.15,287.61,0.04"/>
    </edge>
    <edge id=":288_2" function="internal">
        <lane id=":288_2_0" index="0" disallow="pedestrian tram rail_urban rail rail_electric rail_fast ship" speed="13.89" length="19.84" width="3.50" shape="198.96,291.08 198.79,271.24"/>
    </edge>
    <edge id=":288_8" function="internal">
        <lane id=":288_8_0" index="0" disallow="pedestrian tram rail_urban rail rail_electric rail_fast ship" speed="7.71" length="9.43" width="3.50" shape="198.15,287.61,0.04 196.69,285.66,0.06 193.91,284.32,0.10 190.02,283.91,0.14"/>
    </edge>
    <edge id=":288_3" function="internal">
        <lane id=":288_3_0" index="0" disallow="all" speed="1.39" length="19.84" width="0.50" shape="204.29,271.20 204.46,291.04"/>
        <lane id=":288_3_1" index="1" disallow="pedestrian tram rail_urban rail rail_electric rail_fast ship" speed="13.89" length="19.84" width="3.50" shape="202.29,271.21 202.46,291.05"/>
    </edge>
    <edge id=":288_5" function="internal">
        <lane id=":288_5_0" index="0" disallow="pedestrian tram rail_urban rail rail_electric rail_fast ship" speed="9.46" length="5.56" width="3.50" shape="202.29,271.21 201.56,276.72,0.04"/>
    </edge>
    <edge id=":288_9" function="internal">
        <lane id=":288_9_0" index="0" disallow="pedestrian tram rail_urban rail rail_electric rail_fast ship" speed="9.46" length="14.57" width="3.50" shape="201.56,276.72,0.04 199.28,280.67,0.07 195.43,283.07,0.10 190.02,283.91,0.14"/>
    </edge>
    <edge id=":288_6" function="internal">
        <lane id=":288_6_0" index="0" disallow="pedestrian tram rail_urban rail rail_electric rail_fast ship" speed="8.11" length="14.49" width="3.50" shape="189.99,280.41,0.14 193.87,279.80,0.10 196.63,278.07,0.07 198.27,275.22,0.04 198.79,271.24"/>
    </edge>
    <edge id=":288_7" function="internal">
        <lane id=":288_7_0" index="0" disallow="pedestrian tram rail_urban rail rail_electric rail_fast ship" speed="9.12" length="18.67" width="3.50" shape="189.99,280.41,0.14 195.41,281.03,0.10 199.29,283.01,0.07 201.64,286.35,0.04 202.46,291.05"/>
    </edge>
    <edge id=":314_0" function="internal">
        <lane id=":314_0_0" index="0" disallow="pedestrian tram rail_urban rail rail_electric rail_fast ship" speed="8.10" length="12.77" width="3.50" shape="179.24,220.22 180.24,223.67,0.00 181.98,226.14,0.00 184.46,227.61,0.00 187.68,228.10,0.00"/>
    </edge>
    <edge id=":314_1" function="internal">
        <lane id=":314_1_0" index="0" disallow="all" speed="1.39" length="19.43" width="0.50" shape="168.24,226.16,0.00 187.68,226.10,0.00"/>
        <lane id=":314_1_1" index="1" disallow="pedestrian tram rail_urban rail rail_electric rail_fast ship" speed="13.89" length="19.43" width="3.50" shape="168.25,228.16,0.00 187.68,228.10,0.00"/>
    </edge>
    <edge id=":314_3" function="internal">
        <lane id=":314_3_0" index="0" speed="13.89" length="19.43" width="2.00" shape="187.71,235.48,0.00 168.27,235.54,0.00"/>
        <lane id=":314_3_1" index="1" disallow="all" speed="1.39" length="19.43" width="0.63" shape="187.70,234.16,0.00 168.27,234.22,0.00"/>
        <lane id=":314_3_2" index="2" disallow="all" speed="1.39" length="19.43" width="0.50" shape="187.70,233.60,0.00 168.27,233.66,0.00"/>
        <lane id=":314_3_3" index="3" disallow="pedestrian tram rail_urban rail rail_electric rail_fast ship" speed="13.89" length="19.43" width="3.50" shape="187.70,231.60,0.00 168.26,231.66,0.00"/>
    </edge>
    <edge id=":335_0" function="internal">
        <lane id=":335_0_0" index="0" speed="13.89" length="11.69" width="2.00" shape="271.90,70.63,0.03 269.39,68.67,0.03 267.49,67.57,0.03 265.37,66.90,0.03 262.25,66.27,0.03"/>
        <lane id=":335_0_1" index="1" disallow="all" speed="1.39" length="11.69" width="0.63" shape="272.73,69.61,0.03 270.08,67.53,0.03 268.05,66.35,0.03 265.81,65.64,0.03 262.49,64.98,0.03"/>
        <lane id=":335_0_2" index="2" disallow="all" speed="1.39" length="11.69" width="0.50" shape="273.09,69.17,0.03 270.37,67.04,0.03 268.30,65.83,0.03 266.00,65.10,0.03 262.59,64.42,0.03"/>
        <lane id=":335_0_3" index="3" disallow="pedestrian tram rail_urban rail rail_electric rail_fast ship" speed="13.89" length="11.69" width="3.50" shape="274.36,67.63,0.03 271.40,65.31,0.03 269.15,63.99,0.03 266.66,63.19,0.03 262.96,62.45,0.03">
            <param key="signalID" value="998"/>
        </lane>
    </edge>
    <edge id=":335_4" function="internal">
        <lane id=":335_4_0" index="0" disallow="pedestrian tram rail_urban rail rail_electric rail_fast ship" speed="9.67" length="3.66" width="3.20" shape="274.36,67.63,0.03 272.20,65.14,0.02 272.07,64.80,0.02">
            <param key="signalID" value="998"/>
        </lane>
    </edge>
    <edge id=":335_10" function="internal">
        <lane id=":335_10_0" index="0" disallow="pedestrian tram rail_urban rail rail_electric rail_fast ship" speed="9.67" length="11.05" width="3.20" shape="272.07,64.80,0.02 271.05,62.04,0.01 270.91,58.33,0.01 271.78,54.02">
            <param key="signalID" value="998"/>
        </lane>
    </edge>
    <edge id=":335_5" function="internal">
        <lane id=":335_5_0" index="0" disallow="pedestrian tram rail_urban rail rail_electric rail_fast ship" speed="8.33" length="10.75" width="3.50" shape="274.84,54.93 274.19,58.14,0.01 274.26,60.88,0.01 275.06,63.14,0.02 276.58,64.92,0.03">
            <param key="signalID" value="1000 999"/>
        </lane>
    </edge>
    <edge id=":335_6" function="internal">
        <lane id=":335_6_0" index="0" disallow="pedestrian tram rail_urban rail rail_electric rail_fast ship" speed="8.71" length="15.70" width="3.50" shape="274.84,54.93 273.07,58.87,0.01 270.51,61.44,0.01 267.13,62.63,0.02 262.96,62.45,0.03">
            <param key="signalID" value="999"/>
        </lane>
    </edge>
    <edge id=":335_7" function="internal">
        <lane id=":335_7_0" index="0" disallow="all" speed="1.39" length="15.55" width="0.50" shape="263.97,57.05,0.03 268.48,57.94,0.03 271.51,58.92,0.03 274.25,60.54,0.03 277.85,63.38,0.03">
            <param key="signalID" value="998 999"/>
        </lane>
    </edge>
    <edge id=":335_8" function="internal">
        <lane id=":335_8_0" index="0" disallow="pedestrian tram rail_urban rail rail_electric rail_fast ship" speed="7.32" length="3.62" width="3.20" shape="263.61,59.01,0.03 266.49,59.14,0.02 267.19,58.91,0.02">
            <param key="signalID" value="998 1000"/>
        </lane>
    </edge>
    <edge id=":335_9" function="internal">
        <lane id=":335_9_0" index="0" disallow="pedestrian tram rail_urban rail rail_electric rail_fast ship" speed="13.89" length="14.53" width="3.50" shape="263.61,59.01,0.03 267.82,59.85,0.03 270.66,60.76,0.03 273.22,62.27,0.03 276.58,64.92,0.03">
            <param key="signalID" value="998 999 1000"/>
        </lane>
    </edge>
    <edge id=":335_11" function="internal">
        <lane id=":335_11_0" index="0" disallow="pedestrian tram rail_urban rail rail_electric rail_fast ship" speed="7.32" length="7.06" width="3.20" shape="267.19,58.91,0.02 268.81,58.35,0.01 270.58,56.65,0.01 271.78,54.02">
            <param key="signalID" value="998 1000"/>
        </lane>
    </edge>
    <edge id=":358_0" function="internal">
        <lane id=":358_0_0" index="0" disallow="pedestrian tram rail_urban rail rail_electric rail_fast ship" speed="7.67" length="9.62" width="3.50" shape="105.23,224.49,0.04 103.71,223.23,0.03 101.70,222.66,0.02 99.22,222.79,0.01 96.26,223.60"/>
    </edge>
    <edge id=":358_1" function="internal">
        <lane id=":358_1_0" index="0" disallow="pedestrian tram rail_urban rail rail_electric rail_fast ship" speed="13.89" length="16.69" width="3.50" shape="105.23,224.49,0.04 102.39,220.55,0.03 101.07,217.41,0.02 100.70,213.94,0.01 100.69,209.00"/>
    </edge>
    <edge id=":358_2" function="internal">
        <lane id=":358_2_0" index="0" disallow="pedestrian tram rail_urban rail rail_electric rail_fast ship" speed="13.89" length="14.30" width="3.50" shape="104.19,208.99 104.18,213.23,0.01 104.46,216.22,0.02 105.55,218.92,0.03 107.96,222.30,0.04"/>
    </edge>
    <edge id=":358_3" function="internal">
        <lane id=":358_3_0" index="0" disallow="pedestrian tram rail_urban rail rail_electric rail_fast ship" speed="10.30" length="17.77" width="3.50" shape="104.19,208.99 103.70,214.31 102.22,218.51 99.74,221.61 96.26,223.60"/>
    </edge>
    <edge id=":358_4" function="internal">
        <lane id=":358_4_0" index="0" disallow="pedestrian tram rail_urban rail rail_electric rail_fast ship" speed="9.17" length="13.42" width="3.50" shape="95.07,220.30 97.53,218.75 99.29,216.35 100.35,213.10 100.69,209.00"/>
    </edge>
    <edge id=":358_5" function="internal">