<?xml version="1.0" encoding="UTF-8"?>

<!-- generated on 2023-08-11 11:20:30 by Eclipse SUMO netconvert Version 1.16.0
<configuration xmlns:xsi="http://www.w3.org/2001/XMLSchema-instance" xsi:noNamespaceSchemaLocation="http://sumo.dlr.de/xsd/netconvertConfiguration.xsd">

    <input>
        <opendrive-files value="Town07.xodr"/>
    </input>

    <output>
        <output-file value="C:\Apps\OpenCDA\opencda\assets\custom_single_town07_cosim\custom_single_town07_cosim.net.xml"/>
    </output>

    <processing>
        <offset.disable-normalization value="true"/>
    </processing>

    <tls_building>
        <tls.cycle.time value="20"/>
    </tls_building>

    <junctions>
        <no-turnarounds.except-deadend value="true"/>
    </junctions>

</configuration>
-->

<net version="1.16" junctionCornerDetail="5" rectangularLaneCut="true" limitTurnSpeed="5.50" xmlns:xsi="http://www.w3.org/2001/XMLSchema-instance" xsi:noNamespaceSchemaLocation="http://sumo.dlr.de/xsd/net_file.xsd">

    <location netOffset="0.00,0.00" convBoundary="-203.03,-122.66,84.11,247.38" origBoundary="0.000000,0.000000,0.000000,0.000000" projParameter="+proj=tmerc +lat_0=0 +lon_0=0 +k=1 +x_0=0 +y_0=0 +datum=WGS84 +units=m  +vunits=m +no_defs "/>

    <type id="bidirectional" priority="1" speed="1.39" disallow="pedestrian tram rail_urban rail rail_electric rail_fast ship" width="3.65"/>
    <type id="border" priority="0" speed="1.39" disallow="all" discard="1" width="0.10"/>
    <type id="driving" priority="1" speed="13.89" disallow="pedestrian tram rail_urban rail rail_electric rail_fast ship" width="3.65"/>
    <type id="entry" priority="1" speed="22.22" disallow="pedestrian tram rail_urban rail rail_electric rail_fast ship" width="3.65"/>
    <type id="exit" priority="1" speed="22.22" disallow="pedestrian tram rail_urban rail rail_electric rail_fast ship" width="3.65"/>
    <type id="median" priority="0" speed="1.39" disallow="all" discard="1" width="0.10"/>
    <type id="mwyEntry" priority="1" speed="22.22" allow="private emergency authority army vip passenger hov taxi bus coach delivery truck trailer motorcycle evehicle custom1 custom2" width="3.65"/>
    <type id="mwyExit" priority="1" speed="22.22" allow="private emergency authority army vip passenger hov taxi bus coach delivery truck trailer motorcycle evehicle custom1 custom2" width="3.65"/>
    <type id="none" priority="0" speed="1.39" disallow="all" discard="1" width="1.00"/>
    <type id="offRamp" priority="1" speed="22.22" allow="private emergency authority army vip passenger hov taxi bus coach delivery truck trailer motorcycle evehicle custom1 custom2" width="3.65"/>
    <type id="onRamp" priority="1" speed="22.22" allow="private emergency authority army vip passenger hov taxi bus coach delivery truck trailer motorcycle evehicle custom1 custom2" width="3.65"/>
    <type id="parking" priority="1" speed="1.39" disallow="pedestrian tram rail_urban rail rail_electric rail_fast ship" width="2.50"/>
    <type id="rail" priority="3" speed="33.33" allow="rail_urban rail rail_electric rail_fast" width="3.65"/>
    <type id="restricted" priority="0" speed="13.89" disallow="all" width="3.65"/>
    <type id="roadWorks" priority="0" speed="1.39" allow="authority" width="3.65"/>
    <type id="shoulder" priority="0" speed="1.39" disallow="all" discard="1" width="1.00"/>
    <type id="special1" priority="1" speed="22.22" allow="custom1" discard="1" width="3.65"/>
    <type id="special2" priority="1" speed="22.22" allow="custom2" discard="1" width="3.65"/>
    <type id="special3" priority="1" speed="22.22" allow="custom1 custom2" discard="1" width="3.65"/>
    <type id="stop" priority="1" speed="13.89" disallow="pedestrian tram rail_urban rail rail_electric rail_fast ship" width="3.65"/>
    <type id="tram" priority="2" speed="13.89" allow="tram" width="3.65"/>

    <edge id=":123_0" function="internal">
        <lane id=":123_0_0" index="0" disallow="pedestrian tram rail_urban rail rail_electric rail_fast ship" speed="6.46" length="8.91" width="3.10" shape="-152.79,-43.31,0.00 -153.16,-45.71,0.00 -154.22,-47.42,0.00 -155.97,-48.43,0.00 -158.40,-48.76"/>
    </edge>
    <edge id=":123_1" function="internal">
        <lane id=":123_1_0" index="0" disallow="pedestrian tram rail_urban rail rail_electric rail_fast ship" speed="7.91" length="13.90" width="3.10" shape="-152.79,-43.31,0.00 -152.29,-47.08,0.00 -150.70,-49.77,0.00 -148.01,-51.41,0.00 -144.23,-51.98"/>
    </edge>
    <edge id=":123_2" function="internal">
        <lane id=":123_2_0" index="0" disallow="pedestrian tram rail_urban rail rail_electric rail_fast ship" speed="6.44" length="8.89" width="3.10" shape="-144.20,-48.88 -146.63,-48.52,0.00 -148.35,-47.47,0.00 -149.37,-45.75,0.00 -149.69,-43.35,0.00"/>
    </edge>
    <edge id=":123_3" function="internal">
        <lane id=":123_3_0" index="0" disallow="pedestrian tram rail_urban rail rail_electric rail_fast ship" speed="13.89" length="14.20" width="3.10" shape="-144.20,-48.88 -158.40,-48.76"/>
    </edge>
    <edge id=":123_4" function="internal">
        <lane id=":123_4_0" index="0" disallow="pedestrian tram rail_urban rail rail_electric rail_fast ship" speed="13.89" length="14.20" width="3.10" shape="-158.43,-51.86 -144.23,-51.98"/>
    </edge>
    <edge id=":123_5" function="internal">
        <lane id=":123_5_0" index="0" disallow="pedestrian tram rail_urban rail rail_electric rail_fast ship" speed="7.92" length="3.93" width="3.10" shape="-158.43,-51.86 -154.64,-51.35,0.00 -154.55,-51.30,0.00"/>
    </edge>
    <edge id=":123_6" function="internal">
        <lane id=":123_6_0" index="0" disallow="pedestrian tram rail_urban rail rail_electric rail_fast ship" speed="7.92" length="9.97" width="3.10" shape="-154.55,-51.30,0.00 -151.93,-49.77,0.00 -150.27,-47.10,0.00 -149.69,-43.35,0.00"/>
    </edge>
    <edge id=":146_0" function="internal">
        <lane id=":146_0_0" index="0" disallow="pedestrian tram rail_urban rail rail_electric rail_fast ship" speed="7.36" length="11.33" width="3.20" shape="-192.20,-48.46 -195.36,-48.02 -197.67,-46.76 -199.12,-44.67 -199.71,-41.76"/>
    </edge>
    <edge id=":146_1" function="internal">
        <lane id=":146_1_0" index="0" disallow="pedestrian tram rail_urban rail rail_electric rail_fast ship" speed="8.58" length="16.50" width="3.20" shape="-192.20,-48.46 -196.70,-49.06 -199.94,-50.94 -201.90,-54.10 -202.58,-58.54"/>
    </edge>
    <edge id=":146_2" function="internal">
        <lane id=":146_2_0" index="0" disallow="pedestrian tram rail_urban rail rail_electric rail_fast ship" speed="7.24" length="11.43" width="3.10" shape="-199.38,-58.57 -198.91,-55.48 -197.56,-53.28 -195.33,-51.98 -192.22,-51.56"/>
    </edge>
    <edge id=":146_3" function="internal">
        <lane id=":146_3_0" index="0" disallow="pedestrian tram rail_urban rail rail_electric rail_fast ship" speed="13.89" length="16.81" width="3.20" shape="-199.38,-58.57 -199.71,-41.76"/>
    </edge>
    <edge id=":146_4" function="internal">
        <lane id=":146_4_0" index="0" disallow="pedestrian tram rail_urban rail rail_electric rail_fast ship" speed="13.89" length="16.62" width="3.20" shape="-202.91,-41.92 -202.58,-58.54"/>
    </edge>
    <edge id=":146_5" function="internal">
        <lane id=":146_5_0" index="0" disallow="pedestrian tram rail_urban rail rail_electric rail_fast ship" speed="8.70" length="3.97" width="3.10" shape="-202.91,-41.92 -202.12,-45.82"/>
    </edge>
    <edge id=":146_6" function="internal">
        <lane id=":146_6_0" index="0" disallow="pedestrian tram rail_urban rail rail_electric rail_fast ship" speed="8.70" length="12.23" width="3.10" shape="-202.12,-45.82 -202.06,-46.11 -200.00,-49.11 -196.72,-50.93 -192.22,-51.56"/>
    </edge>
    <edge id=":169_0" function="internal">
        <lane id=":169_0_0" index="0" disallow="pedestrian tram rail_urban rail rail_electric rail_fast ship" speed="7.15" length="11.13" width="3.10" shape="-151.75,43.35,0.23 -152.23,40.39,0.23 -153.56,38.28,0.23 -155.76,37.02,0.23 -158.83,36.62,0.23"/>
    </edge>
    <edge id=":169_1" function="internal">
        <lane id=":169_1_0" index="0" disallow="pedestrian tram rail_urban rail rail_electric rail_fast ship" speed="13.89" length="16.80" width="3.10" shape="-151.75,43.35,0.23 -151.95,26.55,0.27"/>
    </edge>
    <edge id=":169_2" function="internal">
        <lane id=":169_2_0" index="0" disallow="pedestrian tram rail_urban rail rail_electric rail_fast ship" speed="8.53" length="16.34" width="3.10" shape="-151.75,43.35,0.23 -151.15,39.02,0.20 -149.24,35.92,0.17 -146.01,34.04,0.14 -141.46,33.39,0.11"/>
    </edge>
    <edge id=":169_3" function="internal">
        <lane id=":169_3_0" index="0" disallow="pedestrian tram rail_urban rail rail_electric rail_fast ship" speed="7.19" length="11.33" width="3.10" shape="-141.44,36.49,0.11 -144.63,36.94,0.14 -146.89,38.22,0.17 -148.23,40.35,0.20 -148.65,43.31,0.23"/>
    </edge>
    <edge id=":169_4" function="internal">
        <lane id=":169_4_0" index="0" disallow="pedestrian tram rail_urban rail rail_electric rail_fast ship" speed="13.89" length="17.39" width="3.10" shape="-141.44,36.49,0.11 -158.83,36.62,0.23"/>
    </edge>
    <edge id=":169_5" function="internal">
        <lane id=":169_5_0" index="0" disallow="pedestrian tram rail_urban rail rail_electric rail_fast ship" speed="8.59" length="4.59" width="3.10" shape="-141.44,36.49,0.11 -146.00,35.90,0.15"/>
    </edge>
    <edge id=":169_12" function="internal">
        <lane id=":169_12_0" index="0" disallow="pedestrian tram rail_urban rail rail_electric rail_fast ship" speed="8.59" length="11.89" width="3.10" shape="-146.00,35.90,0.15 -149.27,34.04,0.19 -151.25,30.93,0.23 -151.95,26.55,0.27"/>
    </edge>
    <edge id=":169_6" function="internal">
        <lane id=":169_6_0" index="0" disallow="pedestrian tram rail_urban rail rail_electric rail_fast ship" speed="7.26" length="11.50" width="3.10" shape="-148.85,26.51,0.27 -148.36,29.54,0.23 -146.96,31.70,0.19 -144.67,32.98,0.15 -141.46,33.39,0.11"/>
    </edge>
    <edge id=":169_7" function="internal">
        <lane id=":169_7_0" index="0" disallow="pedestrian tram rail_urban rail rail_electric rail_fast ship" speed="13.89" length="16.80" width="3.10" shape="-148.85,26.51,0.27 -148.65,43.31,0.23"/>
    </edge>
    <edge id=":169_8" function="internal">
        <lane id=":169_8_0" index="0" disallow="pedestrian tram rail_urban rail rail_electric rail_fast ship" speed="8.49" length="16.21" width="3.10" shape="-148.85,26.51,0.27 -149.43,30.91,0.26 -151.29,34.06,0.25 -154.42,35.96,0.24 -158.83,36.62,0.23"/>
    </edge>
    <edge id=":169_9" function="internal">
        <lane id=":169_9_0" index="0" disallow="pedestrian tram rail_urban rail rail_electric rail_fast ship" speed="7.15" length="11.20" width="3.10" shape="-158.85,33.52,0.23 -155.80,33.07,0.24 -153.64,31.75,0.25 -152.35,29.58,0.26 -151.95,26.55,0.27"/>
    </edge>
    <edge id=":169_10" function="internal">
        <lane id=":169_10_0" index="0" disallow="pedestrian tram rail_urban rail rail_electric rail_fast ship" speed="13.89" length="17.39" width="3.10" shape="-158.85,33.52,0.23 -141.46,33.39,0.11"/>
    </edge>
    <edge id=":169_11" function="internal">
        <lane id=":169_11_0" index="0" disallow="pedestrian tram rail_urban rail rail_electric rail_fast ship" speed="8.50" length="4.46" width="3.10" shape="-158.85,33.52,0.23 -154.44,34.10,0.23"/>
    </edge>
    <edge id=":169_13" function="internal">
        <lane id=":169_13_0" index="0" disallow="pedestrian tram rail_urban rail rail_electric rail_fast ship" speed="8.50" length="11.65" width="3.10" shape="-154.44,34.10,0.23 -151.26,35.93,0.23 -149.33,39.00,0.23 -148.65,43.31,0.23"/>
    </edge>
    <edge id=":17.16_0" function="internal">
        <lane id=":17.16_0_0" index="0" disallow="pedestrian tram rail_urban rail rail_electric rail_fast ship" speed="13.89" length="0.10" width="3.50" shape="-15.89,66.08 -15.89,66.08"/>
    </edge>
    <edge id=":17.16_1" function="internal">
        <lane id=":17.16_1_0" index="0" disallow="pedestrian tram rail_urban rail rail_electric rail_fast ship" speed="13.89" length="0.10" width="3.50" shape="-15.85,62.58 -15.85,62.58"/>
    </edge>
    <edge id=":18.17_0" function="internal">
        <lane id=":18.17_0_0" index="0" disallow="pedestrian tram rail_urban rail rail_electric rail_fast ship" speed="13.89" length="0.10" width="3.50" shape="-88.37,65.41 -88.37,65.41"/>
    </edge>
    <edge id=":18.17_1" function="internal">
        <lane id=":18.17_1_0" index="0" disallow="pedestrian tram rail_urban rail rail_electric rail_fast ship" speed="13.89" length="0.10" width="3.50" shape="-88.34,61.91 -88.34,61.91"/>
    </edge>
    <edge id=":26#1_0" function="internal">
        <lane id=":26#1_0_0" index="0" allow="emergency authority" speed="13.89" length="3.08" width="3.50" shape="26.38,6.24,0.03 25.47,6.36,0.03 24.88,6.66,0.03 24.28,6.94,0.03 23.37,7.07,0.03"/>
        <lane id=":26#1_0_1" index="1" disallow="pedestrian tram rail_urban rail rail_electric rail_fast ship" speed="13.89" length="3.08" width="3.50" shape="26.40,3.60,0.03 23.41,3.57,0.03"/>
    </edge>
    <edge id=":26#1_2" function="internal">
        <lane id=":26#1_2_0" index="0" disallow="pedestrian tram rail_urban rail rail_electric rail_fast ship" speed="13.89" length="2.98" width="3.50" shape="23.44,0.07,0.03 26.42,0.10,0.03"/>
    </edge>
    <edge id=":26.25_0" function="internal">
        <lane id=":26.25_0_0" index="0" disallow="pedestrian tram rail_urban rail rail_electric rail_fast ship" speed="13.89" length="8.03" width="3.50" shape="35.05,3.58,0.03 27.02,3.60,0.03"/>
    </edge>
    <edge id=":26.25_1" function="internal">
        <lane id=":26.25_1_0" index="0" disallow="pedestrian tram rail_urban rail rail_electric rail_fast ship" speed="13.89" length="7.97" width="3.50" shape="27.04,0.10,0.03 35.01,0.08,0.03"/>
    </edge>
    <edge id=":260_0" function="internal">
        <lane id=":260_0_0" index="0" disallow="pedestrian tram rail_urban rail rail_electric rail_fast ship" speed="7.34" length="12.11" width="3.50" shape="-5.90,-50.78 -6.41,-54.08,0.01 -7.85,-56.38,0.02 -10.24,-57.67,0.03 -13.57,-57.96,0.03"/>
    </edge>
    <edge id=":260_1" function="internal">
        <lane id=":260_1_0" index="0" disallow="pedestrian tram rail_urban rail rail_electric rail_fast ship" speed="9.00" length="17.45" width="3.50" shape="-5.90,-50.78 -5.31,-55.68,0.01 -3.42,-59.26,0.02 -0.24,-61.53,0.03 4.23,-62.48,0.03"/>
    </edge>
    <edge id=":260_2" function="internal">
        <lane id=":260_2_0" index="0" disallow="pedestrian tram rail_urban rail rail_electric rail_fast ship" speed="7.56" length="12.01" width="3.50" shape="4.43,-58.98,0.03 1.41,-58.32,0.03 -0.73,-56.74,0.02 -2.00,-54.24,0.01 -2.40,-50.81"/>
    </edge>
    <edge id=":260_3" function="internal">
        <lane id=":260_3_0" index="0" disallow="pedestrian tram rail_urban rail rail_electric rail_fast ship" speed="13.89" length="18.02" width="3.50" shape="4.43,-58.98,0.03 -13.57,-57.96,0.03"/>
    </edge>
    <edge id=":260_4" function="internal">
        <lane id=":260_4_0" index="0" disallow="pedestrian tram rail_urban rail rail_electric rail_fast ship" speed="13.89" length="18.02" width="3.50" shape="-13.77,-61.45,0.03 4.23,-62.48,0.03"/>
    </edge>
    <edge id=":260_5" function="internal">
        <lane id=":260_5_0" index="0" disallow="pedestrian tram rail_urban rail rail_electric rail_fast ship" speed="8.81" length="5.11" width="3.50" shape="-13.77,-61.45,0.03 -8.83,-61.03,0.03 -8.69,-60.95,0.02"/>
    </edge>
    <edge id=":260_6" function="internal">
        <lane id=":260_6_0" index="0" disallow="pedestrian tram rail_urban rail rail_electric rail_fast ship" speed="8.81" length="12.84" width="3.50" shape="-8.69,-60.95,0.02 -5.29,-59.11,0.02 -3.15,-55.70,0.01 -2.40,-50.81"/>
    </edge>
    <edge id=":288_0" function="internal">
        <lane id=":288_0_0" index="0" disallow="pedestrian tram rail_urban rail rail_electric rail_fast ship" speed="7.34" length="11.71" width="3.50" shape="-4.07,168.43 -4.55,165.25,0.04 -5.93,163.00,0.07 -8.21,161.66,0.10 -11.39,161.24,0.14"/>
    </edge>
    <edge id=":288_1" function="internal">
        <lane id=":288_1_0" index="0" disallow="pedestrian tram rail_urban rail rail_electric rail_fast ship" speed="13.89" length="18.20" width="3.50" shape="-4.07,168.43 -4.22,150.23"/>
    </edge>
    <edge id=":288_2" function="internal">
        <lane id=":288_2_0" index="0" disallow="pedestrian tram rail_urban rail rail_electric rail_fast ship" speed="13.89" length="18.20" width="3.50" shape="-0.72,150.20 -0.57,168.40"/>
    </edge>
    <edge id=":288_3" function="internal">
        <lane id=":288_3_0" index="0" disallow="pedestrian tram rail_urban rail rail_electric rail_fast ship" speed="8.86" length="5.07" width="3.50" shape="-0.72,150.20 -1.35,154.99,0.04 -1.47,155.19,0.04"/>
    </edge>
    <edge id=":288_6" function="internal">
        <lane id=":288_6_0" index="0" disallow="pedestrian tram rail_urban rail rail_electric rail_fast ship" speed="8.86" length="12.43" width="3.50" shape="-1.47,155.19,0.04 -3.34,158.42,0.07 -6.69,160.51,0.10 -11.39,161.24,0.14"/>
    </edge>
    <edge id=":288_4" function="internal">
        <lane id=":288_4_0" index="0" disallow="pedestrian tram rail_urban rail rail_electric rail_fast ship" speed="7.40" length="11.86" width="3.50" shape="-11.42,157.74,0.14 -8.25,157.24,0.10 -5.99,155.82,0.07 -4.65,153.49,0.04 -4.22,150.23"/>
    </edge>
    <edge id=":288_5" function="internal">
        <lane id=":288_5_0" index="0" disallow="pedestrian tram rail_urban rail rail_electric rail_fast ship" speed="8.81" length="17.36" width="3.50" shape="-11.42,157.74,0.14 -6.71,158.36,0.10 -3.33,160.35,0.07 -1.28,163.69,0.04 -0.57,168.40"/>
    </edge>
    <edge id=":314_0" function="internal">
        <lane id=":314_0_0" index="0" disallow="pedestrian tram rail_urban rail rail_electric rail_fast ship" speed="13.89" length="18.33" width="3.50" shape="-16.44,108.94,0.00 -34.76,109.00,0.00"/>
    </edge>
    <edge id=":314_1" function="internal">
        <lane id=":314_1_0" index="0" disallow="pedestrian tram rail_urban rail rail_electric rail_fast ship" speed="7.84" length="11.91" width="3.50" shape="-23.79,97.51 -22.86,100.99,0.00 -21.33,103.47,0.00 -19.19,104.96,0.00 -16.45,105.44,0.00"/>
    </edge>
    <edge id=":314_2" function="internal">
        <lane id=":314_2_0" index="0" disallow="pedestrian tram rail_urban rail rail_electric rail_fast ship" speed="13.89" length="18.33" width="3.50" shape="-34.78,105.50,0.00 -16.45,105.44,0.00"/>
    </edge>
    <edge id=":335_0" function="internal">
        <lane id=":335_0_0" index="0" disallow="pedestrian tram rail_urban rail rail_electric rail_fast ship" speed="13.89" length="12.73" width="3.50" shape="71.34,-55.03,0.03 68.61,-57.04,0.03 66.01,-58.46,0.03 63.21,-59.46,0.03 59.89,-60.21,0.03">
            <param key="signalID" value="998"/>
        </lane>
    </edge>
    <edge id=":335_1" function="internal">
        <lane id=":335_1_0" index="0" disallow="pedestrian tram rail_urban rail rail_electric rail_fast ship" speed="9.67" length="3.30" width="3.20" shape="71.34,-55.03,0.03 69.17,-57.52,0.02">
            <param key="signalID" value="998"/>
        </lane>
    </edge>
    <edge id=":335_6" function="internal">
        <lane id=":335_6_0" index="0" disallow="pedestrian tram rail_urban rail rail_electric rail_fast ship" speed="9.67" length="11.41" width="3.20" shape="69.17,-57.52,0.02 68.02,-60.62,0.01 67.88,-64.32,0.01 68.75,-68.63">
            <param key="signalID" value="998"/>
        </lane>
    </edge>
    <edge id=":335_2" function="internal">
        <lane id=":335_2_0" index="0" disallow="pedestrian tram rail_urban rail rail_electric rail_fast ship" speed="8.33" length="10.75" width="3.50" shape="71.82,-67.72 71.16,-64.51,0.01 71.23,-61.78,0.01 72.03,-59.52,0.02 73.56,-57.73,0.03">
            <param key="signalID" value="999"/>
        </lane>
    </edge>
    <edge id=":335_3" function="internal">
        <lane id=":335_3_0" index="0" disallow="pedestrian tram rail_urban rail rail_electric rail_fast ship" speed="8.72" length="15.74" width="3.50" shape="71.82,-67.72 70.05,-63.79,0.01 67.47,-61.22,0.01 64.08,-60.03,0.02 59.89,-60.21,0.03">
            <param key="signalID" value="999"/>
        </lane>
    </edge>
    <edge id=":335_4" function="internal">
        <lane id=":335_4_0" index="0" disallow="pedestrian tram rail_urban rail rail_electric rail_fast ship" speed="7.34" length="10.72" width="3.20" shape="60.53,-63.65,0.03 63.44,-63.52,0.02 65.78,-64.30,0.01 67.55,-66.01,0.01 68.75,-68.63">
            <param key="signalID" value="1000"/>
        </lane>
    </edge>
    <edge id=":335_5" function="internal">
        <lane id=":335_5_0" index="0" disallow="pedestrian tram rail_urban rail rail_electric rail_fast ship" speed="13.89" length="14.46" width="3.50" shape="60.53,-63.65,0.03 64.10,-62.79,0.03 67.44,-61.54,0.03 70.58,-59.87,0.03 73.56,-57.73,0.03">
            <param key="signalID" value="1000"/>
        </lane>
    </edge>
    <edge id=":358_0" function="internal">
        <lane id=":358_0_0" index="0" disallow="pedestrian tram rail_urban rail rail_electric rail_fast ship" speed="7.67" length="9.62" width="3.50" shape="-97.79,101.83,0.04 -99.32,100.58,0.03 -101.32,100.01,0.02 -103.81,100.13,0.01 -106.77,100.94"/>
    </edge>
    <edge id=":358_1" function="internal">
        <lane id=":358_1_0" index="0" disallow="pedestrian tram rail_urban rail rail_electric rail_fast ship" speed="13.89" length="16.39" width="3.50" shape="-97.79,101.83,0.04 -99.82,98.47,0.03 -101.23,94.50,0.02 -102.06,90.32,0.01 -102.34,86.34"/>
    </edge>
    <edge id=":358_2" function="internal">
        <lane id=":358_2_0" index="0" disallow="pedestrian tram rail_urban rail rail_electric rail_fast ship" speed="13.88" length="14.11" width="3.50" shape="-98.84,86.34 -98.68,89.98,0.01 -98.12,93.40,0.02 -96.97,96.62,0.03 -95.06,99.64,0.04"/>
    </edge>
    <edge id=":358_3" function="internal">
        <lane id=":358_3_0" index="0" disallow="pedestrian tram rail_urban rail rail_electric rail_fast ship" speed="10.30" length="17.77" width="3.50" shape="-98.84,86.34 -99.32,91.65 -100.81,95.85 -103.29,98.95 -106.77,100.94"/>
    </edge>
    <edge id=":358_4" function="internal">
        <lane id=":358_4_0" index="0" disallow="pedestrian tram rail_urban rail rail_electric rail_fast ship" speed="9.17" length="13.42" width="3.50" shape="-107.96,97.65 -105.49,96.10 -103.73,93.70 -102.68,90.44 -102.34,86.34"/>
    </edge>
    <edge id=":358_5" function="internal">
        <lane id=":358_5_0" index="0" disallow="pedestrian tram rail_urban rail rail_electric rail_fast ship" speed="9.01" length="14.05" width="3.50" shape="-107.96,97.65 -103.95,96.49,0.01 -100.46,96.44,0.02 -97.50,97.49,0.03 -95.06,99.64,0.04"/>
    </edge>
    <edge id=":38.23_0" function="internal">
        <lane id=":38.23_0_0" index="0" disallow="pedestrian tram rail_urban rail rail_electric rail_fast ship" speed="13.89" length="0.10" width="3.50" shape="31.55,-60.11,0.03 31.55,-60.11,0.03"/>
    </edge>
    <edge id=":38.23_1" function="internal">
        <lane id=":38.23_1_0" index="0" disallow="pedestrian tram rail_urban rail rail_electric rail_fast ship" speed="13.89" length="0.10" width="3.50" shape="31.45,-63.61,0.03 31.45,-63.61,0.03"/>
    </edge>
    <edge id=":39.21_0" function="internal">
        <lane id=":39.21_0_0" index="0" disallow="pedestrian tram rail_urban rail rail_electric rail_fast ship" speed="13.89" length="0.32" width="3.20" shape="-175.69,248.68,0.01 -176.01,248.73,-0.01"/>
    </edge>
    <edge id=":39.21_1" function="internal">
        <lane id=":39.21_1_0" index="0" disallow="pedestrian tram rail_urban rail rail_electric rail_fast ship" speed="13.89" length="0.32" width="3.20" shape="-176.51,245.57,-0.02 -176.19,245.52,0.01"/>
    </edge>
    <edge id=":402_0" function="internal">
        <lane id=":402_0_0" index="0" disallow="pedestrian tram rail_urban rail rail_electric rail_fast ship" speed="7.42" length="11.80" width="3.50" shape="-4.87,73.31 -5.36,70.19 -6.77,67.95 -9.11,66.59 -12.37,66.12"/>
    </edge>
    <edge id=":402_1" function="internal">
        <lane id=":402_1_0" index="0" disallow="pedestrian tram rail_urban rail rail_electric rail_fast ship" speed="13.89" length="18.00" width="3.50" shape="-4.87,73.31 -5.02,55.31"/>
    </edge>
    <edge id=":402_2" function="internal">
        <lane id=":402_2_0" index="0" disallow="pedestrian tram rail_urban rail rail_electric rail_fast ship" speed="13.89" length="18.00" width="3.50" shape="-1.52,55.28 -1.37,73.28"/>
    </edge>
    <edge id=":402_3" function="internal">
        <lane id=":402_3_0" index="0" disallow="pedestrian tram rail_urban rail rail_electric rail_fast ship" speed="8.81" length="5.03" width="3.50" shape="-1.52,55.28 -2.16,60.06 -2.27,60.23"/>
    </edge>
    <edge id=":402_6" function="internal">
        <lane id=":402_6_0" index="0" disallow="pedestrian tram rail_urban rail rail_electric rail_fast ship" speed="8.81" length="12.53" width="3.50" shape="-2.27,60.23 -4.18,63.46 -7.59,65.48 -12.37,66.12"/>
    </edge>
    <edge id=":402_4" function="internal">
        <lane id=":402_4_0" index="0" disallow="pedestrian tram rail_urban rail rail_electric rail_fast ship" speed="7.34" length="11.84" width="3.50" shape="-12.33,62.62 -9.11,62.19 -6.81,60.82 -5.45,58.53 -5.02,55.31"/>
    </edge>
    <edge id=":402_5" function="internal">
        <lane id=":402_5_0" index="0" disallow="pedestrian tram rail_urban rail rail_electric rail_fast ship" speed="8.88" length="17.37" width="3.50" shape="-12.33,62.62 -7.57,63.32 -4.15,65.33 -2.08,68.65 -1.37,73.28"/>
    </edge>
    <edge id=":430_0" function="internal">
        <lane id=":430_0_0" index="0" disallow="pedestrian tram rail_urban rail rail_electric rail_fast ship" speed="13.89" length="18.69" width="3.20" shape="-201.62,44.87 -202.25,26.19"/>
    </edge>
    <edge id=":430_1" function="internal">
        <lane id=":430_1_0" index="0" disallow="pedestrian tram rail_urban rail rail_electric rail_fast ship" speed="8.93" length="18.02" width="3.10" shape="-201.62,44.87 -200.98,40.05,-0.00 -198.89,36.59,-0.00 -195.37,34.49,-0.00 -190.40,33.77,-0.00"/>
    </edge>
    <edge id=":430_2" function="internal">
        <lane id=":430_2_0" index="0" disallow="pedestrian tram rail_urban rail rail_electric rail_fast ship" speed="7.64" length="12.92" width="3.20" shape="-190.38,36.87,-0.00 -193.94,37.39,-0.00 -196.46,38.89,-0.00 -197.96,41.37,-0.00 -198.42,44.83"/>
    </edge>
    <edge id=":430_3" function="internal">
        <lane id=":430_3_0" index="0" disallow="pedestrian tram rail_urban rail rail_electric rail_fast ship" speed="9.10" length="18.02" width="3.20" shape="-190.38,36.87,-0.00 -195.35,36.23,-0.00 -198.98,34.24,-0.00 -201.28,30.89,-0.00 -202.25,26.19"/>
    </edge>
    <edge id=":430_4" function="internal">
        <lane id=":430_4_0" index="0" disallow="pedestrian tram rail_urban rail rail_electric rail_fast ship" speed="7.84" length="13.11" width="3.10" shape="-199.05,26.01 -198.35,29.43,-0.00 -196.68,31.86,-0.00 -194.03,33.31,-0.00 -190.40,33.77,-0.00"/>
    </edge>
    <edge id=":430_5" function="internal">
        <lane id=":430_5_0" index="0" disallow="pedestrian tram rail_urban rail rail_electric rail_fast ship" speed="13.89" length="18.82" width="3.20" shape="-199.05,26.01 -198.42,44.83"/>
    </edge>
    <edge id=":453_0" function="internal">
        <lane id=":453_0_0" index="0" disallow="pedestrian tram rail_urban rail rail_electric rail_fast ship" speed="13.89" length="12.02" width="3.20" shape="-172.54,-108.50 -184.50,-107.22"/>
    </edge>
    <edge id=":453_1" function="internal">
        <lane id=":453_1_0" index="0" disallow="pedestrian tram rail_urban rail rail_electric rail_fast ship" speed="13.89" length="12.02" width="3.20" shape="-184.84,-110.40 -172.89,-111.69"/>
    </edge>
    <edge id=":466_0" function="internal">
        <lane id=":466_0_0" index="0" disallow="pedestrian tram rail_urban rail rail_electric rail_fast ship" speed="9.69" length="14.01" width="3.50" shape="69.09,8.44,0.05 67.23,5.97,0.05 64.59,4.24,0.04 61.17,3.26,0.03 56.97,3.02,0.03">
            <param key="signalID" value="1008"/>
        </lane>
    </edge>
    <edge id=":466_1" function="internal">
        <lane id=":466_1_0" index="0" disallow="pedestrian tram rail_urban rail rail_electric rail_fast ship" speed="8.81" length="15.14" width="3.50" shape="69.09,8.44,0.05 67.69,4.56,0.04 67.70,1.03,0.04 69.11,-2.16,0.03 71.93,-5.00,0.03">
            <param key="signalID" value="1008"/>
        </lane>
    </edge>
    <edge id=":466_2" function="internal">
        <lane id=":466_2_0" index="0" disallow="pedestrian tram rail_urban rail rail_electric rail_fast ship" speed="7.42" length="10.38" width="3.20" shape="74.04,-2.21,0.03 72.06,-0.23,0.03 71.05,1.95,0.04 71.01,4.35,0.04 71.93,6.97,0.05">
            <param key="signalID" value="1007"/>
        </lane>
    </edge>
    <edge id=":466_3" function="internal">
        <lane id=":466_3_0" index="0" disallow="pedestrian tram rail_urban rail rail_electric rail_fast ship" speed="13.89" length="18.05" width="3.50" shape="74.04,-2.21,0.03 70.40,-0.14,0.03 65.89,1.48,0.03 61.19,2.57,0.03 56.97,3.02,0.03">
            <param key="signalID" value="1007"/>
        </lane>
    </edge>
    <edge id=":466_4" function="internal">
        <lane id=":466_4_0" index="0" disallow="pedestrian tram rail_urban rail rail_electric rail_fast ship" speed="13.89" length="15.94" width="3.50" shape="56.87,-0.48,0.03 60.77,-0.82,0.03 64.78,-1.66,0.03 68.60,-3.04,0.03 71.93,-5.00,0.03">
            <param key="signalID" value="1009"/>
        </lane>
    </edge>
    <edge id=":466_5" function="internal">