<?xml version='1.0' encoding='UTF-8'?>

<routes>
    <vType id="vType_0" minGap="2.00" speedFactor="normc(1.00,0.00)" vClass="passenger" carFollowModel="IDMM" tau="0.4"/>
    <vType id="DEFAULT_VEHTYPE" minGap="2.50" tau="1.0"  color="255,255,255" Class="passenger" accel="0.5" carFollowModel="EIDM" laneChangeModel="SL2015" sigmaerror="0.5" sigmagap="0.5" sigmaleader="0.10"/>
     <flow id="flow_0" begin="0.00" departLane="3" departSpeed="10" departPos="base" from="29" to="13"  end="4800.00" vehsPerHour="1500.00" type="DEFAULT_VEHTYPE"/>
     <flow id="flow_1" begin="0.00" departLane="1" departSpeed="11" departPos="base" from="-25" to="13"  end="4800.00" vehsPerHour="1200.00" type="DEFAULT_VEHTYPE"/>
</routes>