<?xml version="1.0" encoding="UTF-8"?>

<!-- generated on 2023-06-16 15:38:10 by Eclipse SUMO netconvert Version 1.16.0
<configuration xmlns:xsi="http://www.w3.org/2001/XMLSchema-instance" xsi:noNamespaceSchemaLocation="http://sumo.dlr.de/xsd/netconvertConfiguration.xsd">

    <input>
        <opendrive-files value="Town10HD.xodr"/>
    </input>

    <output>
        <output-file value="C:\Apps\OpenCDA\opencda\assets\custom_single_town10_cosim\custom_single_town10_cosim_no_offset.net.xml"/>
    </output>

    <processing>
        <offset.disable-normalization value="true"/>
        <flip-y-axis value="true"/>
    </processing>

    <junctions>
        <no-turnarounds.except-deadend value="true"/>
    </junctions>

</configuration>
-->

<net version="1.16" junctionCornerDetail="5" rectangularLaneCut="true" lefthand="true" limitTurnSpeed="5.50" xmlns:xsi="http://www.w3.org/2001/XMLSchema-instance" xsi:noNamespaceSchemaLocation="http://sumo.dlr.de/xsd/net_file.xsd">

    <location netOffset="0.00,0.00" convBoundary="-109.34,-135.96,104.73,63.48" origBoundary="0.000000,0.000000,0.000000,0.000000" projParameter="+proj=tmerc +lat_0=0 +lon_0=0 +k=1 +x_0=0 +y_0=0 +datum=WGS84 +units=m  +vunits=m +no_defs "/>

    <type id="bidirectional" priority="1" speed="1.39" disallow="pedestrian tram rail_urban rail rail_electric rail_fast ship" width="3.65"/>
    <type id="border" priority="0" speed="1.39" disallow="all" discard="1" width="0.10"/>
    <type id="driving" priority="1" speed="13.89" disallow="pedestrian tram rail_urban rail rail_electric rail_fast ship" width="3.65"/>
    <type id="entry" priority="1" speed="22.22" disallow="pedestrian tram rail_urban rail rail_electric rail_fast ship" width="3.65"/>
    <type id="exit" priority="1" speed="22.22" disallow="pedestrian tram rail_urban rail rail_electric rail_fast ship" width="3.65"/>
    <type id="median" priority="0" speed="1.39" disallow="all" discard="1" width="0.10"/>
    <type id="mwyEntry" priority="1" speed="22.22" allow="private emergency authority army vip passenger hov taxi bus coach delivery truck trailer motorcycle evehicle custom1 custom2" width="3.65"/>
    <type id="mwyExit" priority="1" speed="22.22" allow="private emergency authority army vip passenger hov taxi bus coach delivery truck trailer motorcycle evehicle custom1 custom2" width="3.65"/>
    <type id="none" priority="0" speed="1.39" disallow="all" discard="1" width="1.00"/>
    <type id="offRamp" priority="1" speed="22.22" allow="private emergency authority army vip passenger hov taxi bus coach delivery truck trailer motorcycle evehicle custom1 custom2" width="3.65"/>
    <type id="onRamp" priority="1" speed="22.22" allow="private emergency authority army vip passenger hov taxi bus coach delivery truck trailer motorcycle evehicle custom1 custom2" width="3.65"/>
    <type id="parking" priority="1" speed="1.39" disallow="pedestrian tram rail_urban rail rail_electric rail_fast ship" width="2.50"/>
    <type id="rail" priority="3" speed="33.33" allow="rail_urban rail rail_electric rail_fast" width="3.65"/>
    <type id="restricted" priority="0" speed="13.89" disallow="all" width="3.65"/>
    <type id="roadWorks" priority="0" speed="1.39" allow="authority" width="3.65"/>
    <type id="shoulder" priority="0" speed="1.39" disallow="all" discard="1" width="1.00"/>
    <type id="special1" priority="1" speed="22.22" allow="custom1" discard="1" width="3.65"/>
    <type id="special2" priority="1" speed="22.22" allow="custom2" discard="1" width="3.65"/>
    <type id="special3" priority="1" speed="22.22" allow="custom1 custom2" discard="1" width="3.65"/>
    <type id="stop" priority="1" speed="13.89" disallow="pedestrian tram rail_urban rail rail_electric rail_fast ship" width="3.65"/>
    <type id="tram" priority="2" speed="13.89" allow="tram" width="3.65"/>

    <edge id=":10.0_0" function="internal">
        <lane id=":10.0_0_0" index="0" disallow="pedestrian tram rail_urban rail rail_electric rail_fast ship" speed="13.89" length="0.36" width="3.50" shape="109.98,-22.47 109.98,-22.87"/>
        <lane id=":10.0_0_1" index="1" disallow="pedestrian tram rail_urban rail rail_electric rail_fast ship" speed="13.89" length="0.36" width="3.50" shape="106.48,-22.52 106.48,-22.83"/>
    </edge>
    <edge id=":10.0_2" function="internal">
        <lane id=":10.0_2_0" index="0" disallow="pedestrian tram rail_urban rail rail_electric rail_fast ship" speed="13.89" length="0.19" width="3.50" shape="99.48,-22.76 99.48,-22.61"/>
        <lane id=":10.0_2_1" index="1" disallow="pedestrian tram rail_urban rail rail_electric rail_fast ship" speed="13.89" length="0.19" width="3.50" shape="102.98,-22.80 102.98,-22.57"/>
    </edge>
    <edge id=":134_0" function="internal">
        <lane id=":134_0_0" index="0" disallow="pedestrian tram rail_urban rail rail_electric rail_fast ship" speed="9.99" length="22.34" width="3.50" shape="58.05,66.32 51.98,65.46 47.62,62.87 44.97,58.57 44.03,52.55"/>
    </edge>
    <edge id=":134_1" function="internal">
        <lane id=":134_1_0" index="0" disallow="pedestrian tram rail_urban rail rail_electric rail_fast ship" speed="13.89" length="30.91" width="3.50" shape="58.05,66.32 27.14,66.28"/>
    </edge>
    <edge id=":134_2" function="internal">
        <lane id=":134_2_0" index="0" disallow="pedestrian tram rail_urban rail rail_electric rail_fast ship" speed="13.89" length="30.91" width="3.50" shape="27.14,69.78 58.05,69.82"/>
    </edge>
    <edge id=":134_3" function="internal">
        <lane id=":134_3_0" index="0" disallow="pedestrian tram rail_urban rail rail_electric rail_fast ship" speed="10.93" length="6.02" width="3.50" shape="27.14,69.78 33.09,68.93"/>
    </edge>
    <edge id=":134_6" function="internal">
        <lane id=":134_6_0" index="0" disallow="pedestrian tram rail_urban rail rail_electric rail_fast ship" speed="10.93" length="21.59" width="3.50" shape="33.09,68.93 34.61,68.71 39.92,65.49 43.06,60.10 44.03,52.55"/>
    </edge>
    <edge id=":134_4" function="internal">
        <lane id=":134_4_0" index="0" disallow="pedestrian tram rail_urban rail rail_electric rail_fast ship" speed="9.79" length="21.91" width="3.50" shape="40.53,52.59 39.76,58.59 37.27,62.87 33.07,65.43 27.14,66.28"/>
    </edge>
    <edge id=":134_5" function="internal">
        <lane id=":134_5_0" index="0" disallow="pedestrian tram rail_urban rail rail_electric rail_fast ship" speed="11.11" length="27.93" width="3.50" shape="40.53,52.59 41.71,60.12 45.02,65.50 50.47,68.74 58.05,69.82"/>
    </edge>
    <edge id=":16.15_0" function="internal">
        <lane id=":16.15_0_0" index="0" disallow="pedestrian tram rail_urban rail rail_electric rail_fast ship" speed="13.89" length="0.10" width="3.50" shape="-41.82,-4.81 -41.82,-4.81"/>
        <lane id=":16.15_0_1" index="1" disallow="pedestrian tram rail_urban rail rail_electric rail_fast ship" speed="13.89" length="0.10" width="3.50" shape="-45.32,-4.80 -45.32,-4.80"/>
    </edge>
    <edge id=":16.15_2" function="internal">
        <lane id=":16.15_2_0" index="0" disallow="pedestrian tram rail_urban rail rail_electric rail_fast ship" speed="13.89" length="0.10" width="3.50" shape="-52.32,-4.79 -52.32,-4.79"/>
        <lane id=":16.15_2_1" index="1" disallow="pedestrian tram rail_urban rail rail_electric rail_fast ship" speed="13.89" length="0.10" width="3.50" shape="-48.82,-4.80 -48.82,-4.80"/>
    </edge>
    <edge id=":17.10_0" function="internal">
        <lane id=":17.10_0_0" index="0" disallow="pedestrian tram rail_urban rail rail_electric rail_fast ship" speed="13.89" length="0.29" width="3.50" shape="7.56,-67.90 7.28,-67.90"/>
        <lane id=":17.10_0_1" index="1" disallow="pedestrian tram rail_urban rail rail_electric rail_fast ship" speed="13.89" length="0.29" width="3.50" shape="7.56,-64.40 7.27,-64.40"/>
    </edge>
    <edge id=":17.10_2" function="internal">
        <lane id=":17.10_2_0" index="0" disallow="pedestrian tram rail_urban rail rail_electric rail_fast ship" speed="13.89" length="0.31" width="3.50" shape="7.24,-57.40 7.56,-57.40"/>
        <lane id=":17.10_2_1" index="1" disallow="pedestrian tram rail_urban rail rail_electric rail_fast ship" speed="13.89" length="0.31" width="3.50" shape="7.26,-60.90 7.56,-60.90"/>
    </edge>
    <edge id=":189_0" function="internal">
        <lane id=":189_0_0" index="0" disallow="pedestrian tram rail_urban rail rail_electric rail_fast ship" speed="9.99" length="22.51" width="3.50" shape="-28.68,13.10 -34.41,12.17 -38.51,9.38 -40.98,4.76 -41.81,-1.70"/>
    </edge>
    <edge id=":189_1" function="internal">
        <lane id=":189_1_0" index="0" disallow="pedestrian tram rail_urban rail rail_electric rail_fast ship" speed="13.89" length="38.11" width="3.50" shape="-28.68,13.10 -66.79,13.00">
            <param key="signalID" value="952"/>
        </lane>
        <lane id=":189_1_1" index="1" disallow="pedestrian tram rail_urban rail rail_electric rail_fast ship" speed="13.89" length="38.11" width="3.50" shape="-28.69,16.60 -66.80,16.50">
            <param key="signalID" value="952"/>
        </lane>
    </edge>
    <edge id=":189_3" function="internal">
        <lane id=":189_3_0" index="0" disallow="pedestrian tram rail_urban rail rail_electric rail_fast ship" speed="12.67" length="14.84" width="3.50" shape="-28.69,16.60 -37.47,18.21 -42.14,21.84">
            <param key="signalID" value="949"/>
        </lane>
    </edge>
    <edge id=":189_18" function="internal">
        <lane id=":189_18_0" index="0" disallow="pedestrian tram rail_urban rail rail_electric rail_fast ship" speed="12.67" length="22.38" width="3.50" shape="-42.14,21.84 -43.73,23.06 -47.46,31.18 -48.69,42.56">
            <param key="signalID" value="949"/>
        </lane>
    </edge>
    <edge id=":189_4" function="internal">
        <lane id=":189_4_0" index="0" disallow="pedestrian tram rail_urban rail rail_electric rail_fast ship" speed="9.87" length="22.13" width="3.50" shape="-41.69,42.54 -40.89,36.21 -38.47,31.69 -34.41,28.99 -28.73,28.10"/>
    </edge>
    <edge id=":189_5" function="internal">
        <lane id=":189_5_0" index="0" disallow="pedestrian tram rail_urban rail rail_electric rail_fast ship" speed="13.89" length="44.24" width="3.50" shape="-41.69,42.54 -41.81,-1.70">
            <param key="signalID" value="950"/>
        </lane>
        <lane id=":189_5_1" index="1" disallow="pedestrian tram rail_urban rail rail_electric rail_fast ship" speed="13.89" length="44.24" width="3.50" shape="-45.19,42.55 -45.31,-1.69">
            <param key="signalID" value="950"/>
        </lane>
    </edge>
    <edge id=":189_7" function="internal">
        <lane id=":189_7_0" index="0" disallow="pedestrian tram rail_urban rail rail_electric rail_fast ship" speed="12.93" length="7.29" width="3.50" shape="-45.19,42.55 -46.06,35.31">
            <param key="signalID" value="950"/>
        </lane>
    </edge>
    <edge id=":189_19" function="internal">
        <lane id=":189_19_0" index="0" disallow="pedestrian tram rail_urban rail rail_electric rail_fast ship" speed="12.93" length="31.17" width="3.50" shape="-46.06,35.31 -46.57,31.17 -50.63,23.04 -57.37,18.15 -66.80,16.50">
            <param key="signalID" value="950"/>
        </lane>
    </edge>
    <edge id=":189_8" function="internal">
        <lane id=":189_8_0" index="0" disallow="pedestrian tram rail_urban rail rail_electric rail_fast ship" speed="10.20" length="23.53" width="3.50" shape="-66.84,28.00 -60.44,28.92 -55.87,31.66 -53.12,36.21 -52.19,42.57"/>
    </edge>
    <edge id=":189_9" function="internal">
        <lane id=":189_9_0" index="0" disallow="pedestrian tram rail_urban rail rail_electric rail_fast ship" speed="13.89" length="38.11" width="3.50" shape="-66.84,28.00 -28.73,28.10">
            <param key="signalID" value="951 950 949"/>
        </lane>
        <lane id=":189_9_1" index="1" disallow="pedestrian tram rail_urban rail rail_electric rail_fast ship" speed="13.89" length="38.11" width="3.50" shape="-66.83,24.50 -28.72,24.60">
            <param key="signalID" value="951 950 949"/>
        </lane>
    </edge>
    <edge id=":189_11" function="internal">
        <lane id=":189_11_0" index="0" disallow="pedestrian tram rail_urban rail rail_electric rail_fast ship" speed="13.34" length="17.92" width="3.50" shape="-66.83,24.50 -55.85,22.89 -50.06,19.26">
            <param key="signalID" value="952 949 949"/>
        </lane>
        <lane id=":189_11_1" index="1" disallow="pedestrian tram rail_urban rail rail_electric rail_fast ship" speed="12.89" length="15.73" width="3.50" shape="-66.83,24.50 -57.39,22.88 -52.42,19.26">
            <param key="signalID" value="952 949 949"/>
        </lane>
    </edge>
    <edge id=":189_20" function="internal">
        <lane id=":189_20_0" index="0" disallow="pedestrian tram rail_urban rail rail_electric rail_fast ship" speed="13.34" length="23.43" width="3.50" shape="-50.06,19.26 -48.03,17.98 -43.35,9.79 -41.81,-1.70">
            <param key="signalID" value="952 949 949"/>
        </lane>
    </edge>
    <edge id=":189_21" function="internal">
        <lane id=":189_21_0" index="0" disallow="pedestrian tram rail_urban rail rail_electric rail_fast ship" speed="12.89" length="22.86" width="3.50" shape="-52.42,19.26 -50.65,17.98 -46.63,9.79 -45.31,-1.69">
            <param key="signalID" value="952 949 949"/>
        </lane>
    </edge>
    <edge id=":189_13" function="internal">
        <lane id=":189_13_0" index="0" disallow="pedestrian tram rail_urban rail rail_electric rail_fast ship" speed="10.16" length="23.54" width="3.50" shape="-52.31,-1.67 -53.20,4.76 -55.91,9.35 -60.44,12.10 -66.79,13.00"/>
    </edge>
    <edge id=":189_14" function="internal">
        <lane id=":189_14_0" index="0" disallow="pedestrian tram rail_urban rail rail_electric rail_fast ship" speed="13.89" length="44.24" width="3.50" shape="-52.31,-1.67 -52.19,42.57">
            <param key="signalID" value="951"/>
        </lane>
        <lane id=":189_14_1" index="1" disallow="pedestrian tram rail_urban rail rail_electric rail_fast ship" speed="13.89" length="44.24" width="3.50" shape="-48.81,-1.68 -48.69,42.56">
            <param key="signalID" value="951"/>
        </lane>
    </edge>
    <edge id=":189_16" function="internal">
        <lane id=":189_16_0" index="0" disallow="pedestrian tram rail_urban rail rail_electric rail_fast ship" speed="13.25" length="8.93" width="3.50" shape="-48.81,-1.68 -47.93,7.21">
            <param key="signalID" value="952"/>
        </lane>
        <lane id=":189_16_1" index="1" disallow="pedestrian tram rail_urban rail rail_electric rail_fast ship" speed="12.77" length="7.90" width="3.50" shape="-48.81,-1.68 -47.93,6.16">
            <param key="signalID" value="952"/>
        </lane>
    </edge>
    <edge id=":189_22" function="internal">
        <lane id=":189_22_0" index="0" disallow="pedestrian tram rail_urban rail rail_electric rail_fast ship" speed="13.25" length="31.54" width="3.50" shape="-47.93,7.21 -47.52,11.33 -43.75,20.63 -37.48,26.22 -28.73,28.10">
            <param key="signalID" value="952"/>
        </lane>
    </edge>
    <edge id=":189_23" function="internal">
        <lane id=":189_23_0" index="0" disallow="pedestrian tram rail_urban rail rail_electric rail_fast ship" speed="12.77" length="29.59" width="3.50" shape="-47.93,6.16 -47.53,9.80 -43.75,18.00 -37.48,22.94 -28.72,24.60">
            <param key="signalID" value="952"/>
        </lane>
    </edge>
    <edge id=":19.18_0" function="internal">
        <lane id=":19.18_0_0" index="0" disallow="pedestrian tram rail_urban rail rail_electric rail_fast ship" speed="13.89" length="0.10" width="3.50" shape="-78.03,12.97 -78.03,12.97"/>
        <lane id=":19.18_0_1" index="1" disallow="pedestrian tram rail_urban rail rail_electric rail_fast ship" speed="13.89" length="0.10" width="3.50" shape="-78.04,16.47 -78.04,16.47"/>
    </edge>
    <edge id=":19.18_2" function="internal">
        <lane id=":19.18_2_0" index="0" disallow="pedestrian tram rail_urban rail rail_electric rail_fast ship" speed="13.89" length="0.10" width="3.50" shape="-78.08,27.97 -78.08,27.97"/>
        <lane id=":19.18_2_1" index="1" disallow="pedestrian tram rail_urban rail rail_electric rail_fast ship" speed="13.89" length="0.10" width="3.50" shape="-78.07,24.47 -78.07,24.47"/>
    </edge>
    <edge id=":22.16_0" function="internal">
        <lane id=":22.16_0_0" index="0" disallow="pedestrian tram rail_urban rail rail_electric rail_fast ship" speed="13.89" length="0.10" width="3.50" shape="-52.34,-17.24 -52.34,-17.23"/>
        <lane id=":22.16_0_1" index="1" disallow="pedestrian tram rail_urban rail rail_electric rail_fast ship" speed="13.89" length="0.10" width="3.50" shape="-48.84,-17.21 -48.84,-17.21"/>
    </edge>
    <edge id=":22.16_2" function="internal">
        <lane id=":22.16_2_0" index="0" disallow="pedestrian tram rail_urban rail rail_electric rail_fast ship" speed="13.89" length="0.10" width="3.50" shape="-41.84,-17.16 -41.84,-17.16"/>
        <lane id=":22.16_2_1" index="1" disallow="pedestrian tram rail_urban rail rail_electric rail_fast ship" speed="13.89" length="0.10" width="3.50" shape="-45.34,-17.18 -45.34,-17.19"/>
    </edge>
    <edge id=":23_0" function="internal">
        <lane id=":23_0_0" index="0" disallow="pedestrian tram rail_urban rail rail_electric rail_fast ship" speed="13.89" length="39.32" width="3.50" shape="-27.73,-68.28 -67.05,-68.69">
            <param key="signalID" value="943"/>
        </lane>
        <lane id=":23_0_1" index="1" disallow="pedestrian tram rail_urban rail rail_electric rail_fast ship" speed="13.89" length="39.32" width="3.50" shape="-27.76,-64.78 -67.08,-65.19">
            <param key="signalID" value="943"/>
        </lane>
    </edge>
    <edge id=":23_2" function="internal">
        <lane id=":23_2_0" index="0" disallow="pedestrian tram rail_urban rail rail_electric rail_fast ship" speed="12.16" length="5.82" width="3.50" shape="-27.76,-64.78 -33.53,-63.98">
            <param key="signalID" value="944 944 944"/>
        </lane>
    </edge>
    <edge id=":23_10" function="internal">
        <lane id=":23_10_0" index="0" disallow="pedestrian tram rail_urban rail rail_electric rail_fast ship" speed="12.16" length="28.31" width="3.50" shape="-33.53,-63.98 -36.84,-63.53 -43.34,-59.53 -47.28,-52.81 -48.64,-43.35">
            <param key="signalID" value="944 944 944"/>
        </lane>
    </edge>
    <edge id=":23_3" function="internal">
        <lane id=":23_3_0" index="0" disallow="pedestrian tram rail_urban rail rail_electric rail_fast ship" speed="10.03" length="22.83" width="3.50" shape="-41.64,-43.30 -40.74,-49.69 -38.14,-54.23 -33.84,-56.93 -27.84,-57.78"/>
        <lane id=":23_3_1" index="1" disallow="pedestrian tram rail_urban rail rail_electric rail_fast ship" speed="10.62" length="25.75" width="3.50" shape="-41.64,-43.30 -40.73,-51.22 -38.11,-56.86 -33.81,-60.21 -27.80,-61.28"/>
    </edge>
    <edge id=":23_5" function="internal">
        <lane id=":23_5_0" index="0" disallow="pedestrian tram rail_urban rail rail_electric rail_fast ship" speed="12.86" length="38.15" width="3.50" shape="-45.14,-43.33 -46.44,-54.34 -50.52,-62.24 -57.39,-67.02 -67.05,-68.69">
            <param key="signalID" value="944 944 945"/>
        </lane>
        <lane id=":23_5_1" index="1" disallow="pedestrian tram rail_urban rail rail_electric rail_fast ship" speed="12.39" length="35.30" width="3.50" shape="-45.14,-43.33 -46.45,-52.81 -50.55,-59.61 -57.42,-63.74 -67.08,-65.19">
            <param key="signalID" value="944 944 945"/>
        </lane>
    </edge>
    <edge id=":23_7" function="internal">
        <lane id=":23_7_0" index="0" disallow="pedestrian tram rail_urban rail rail_electric rail_fast ship" speed="10.30" length="24.03" width="3.50" shape="-67.15,-58.19 -60.55,-57.21 -55.84,-54.41 -53.04,-49.80 -52.14,-43.38"/>
    </edge>
    <edge id=":23_8" function="internal">
        <lane id=":23_8_0" index="0" disallow="pedestrian tram rail_urban rail rail_electric rail_fast ship" speed="13.89" length="39.32" width="3.50" shape="-67.15,-58.19 -27.84,-57.78">
            <param key="signalID" value="943 945"/>
        </lane>
        <lane id=":23_8_1" index="1" disallow="pedestrian tram rail_urban rail rail_electric rail_fast ship" speed="13.89" length="39.32" width="3.50" shape="-67.12,-61.69 -27.80,-61.28">
            <param key="signalID" value="943 945"/>
        </lane>
    </edge>
    <edge id=":3.0_0" function="internal">
        <lane id=":3.0_0_0" index="0" disallow="pedestrian tram rail_urban rail rail_electric rail_fast ship" speed="13.89" length="0.10" width="3.50" shape="99.43,-9.41 99.43,-9.41"/>
        <lane id=":3.0_0_1" index="1" disallow="pedestrian tram rail_urban rail rail_electric rail_fast ship" speed="13.89" length="0.10" width="3.50" shape="102.93,-9.38 102.93,-9.38"/>
    </edge>
    <edge id=":3.0_2" function="internal">
        <lane id=":3.0_2_0" index="0" disallow="pedestrian tram rail_urban rail rail_electric rail_fast ship" speed="13.89" length="0.10" width="3.50" shape="109.93,-9.33 109.93,-9.33"/>
        <lane id=":3.0_2_1" index="1" disallow="pedestrian tram rail_urban rail rail_electric rail_fast ship" speed="13.89" length="0.10" width="3.50" shape="106.43,-9.36 106.43,-9.36"/>
    </edge>
    <edge id=":468_0" function="internal">
        <lane id=":468_0_0" index="0" disallow="pedestrian tram rail_urban rail rail_electric rail_fast ship" speed="10.02" length="22.61" width="3.50" shape="-28.52,130.04 -34.17,129.06 -38.22,126.22 -40.66,121.52 -41.48,114.95"/>
        <lane id=":468_0_1" index="1" disallow="pedestrian tram rail_urban rail rail_electric rail_fast ship" speed="10.60" length="25.40" width="3.50" shape="-28.52,130.04 -35.71,129.06 -40.85,126.22 -43.94,121.52 -44.98,114.96"/>
    </edge>
    <edge id=":468_2" function="internal">
        <lane id=":468_2_0" index="0" disallow="pedestrian tram rail_urban rail rail_electric rail_fast ship" speed="13.89" length="42.34" width="3.50" shape="-28.52,130.04 -37.91,130.18 -49.55,130.38 -61.13,130.13 -70.36,128.94">
            <param key="signalID" value="953 954"/>
        </lane>
        <lane id=":468_2_1" index="1" disallow="pedestrian tram rail_urban rail rail_electric rail_fast ship" speed="13.89" length="42.34" width="3.50" shape="-28.54,133.54 -38.06,133.67 -49.99,133.83 -61.86,133.54 -71.22,132.33">
            <param key="signalID" value="953 954"/>
        </lane>
    </edge>
    <edge id=":468_4" function="internal">
        <lane id=":468_4_0" index="0" disallow="pedestrian tram rail_urban rail rail_electric rail_fast ship" speed="13.89" length="44.02" width="3.50" shape="-72.94,139.11 -63.32,140.37 -50.88,140.73 -38.37,140.63 -28.58,140.54">
            <param key="signalID" value="955"/>
        </lane>
        <lane id=":468_4_1" index="1" disallow="pedestrian tram rail_urban rail rail_electric rail_fast ship" speed="13.89" length="44.02" width="3.50" shape="-72.08,135.72 -62.59,136.96 -50.43,137.28 -38.22,137.15 -28.56,137.04">
            <param key="signalID" value="956"/>
        </lane>
    </edge>
    <edge id=":468_6" function="internal">
        <lane id=":468_6_0" index="0" disallow="pedestrian tram rail_urban rail rail_electric rail_fast ship" speed="10.20" length="28.16" width="3.50" shape="-51.98,114.97 -53.11,122.83 -56.55,127.77 -62.30,129.81 -70.36,128.94">
            <param key="signalID" value="954"/>
        </lane>
        <lane id=":468_6_1" index="1" disallow="pedestrian tram rail_urban rail rail_electric rail_fast ship" speed="11.31" length="34.92" width="3.50" shape="-48.48,114.96 -49.88,124.73 -54.13,130.88 -61.25,133.41 -71.22,132.33">
            <param key="signalID" value="954"/>
        </lane>
    </edge>
    <edge id=":532_0" function="internal">
        <lane id=":532_0_0" index="0" disallow="pedestrian tram rail_urban rail rail_electric rail_fast ship" speed="11.00" length="27.59" width="3.50" shape="99.40,-4.50 98.33,3.36 95.26,8.96 90.17,12.31 83.08,13.41"/>
    </edge>
    <edge id=":532_1" function="internal">
        <lane id=":532_1_0" index="0" disallow="pedestrian tram rail_urban rail rail_electric rail_fast ship" speed="13.89" length="46.64" width="3.50" shape="99.40,-4.50 99.08,42.14">
            <param key="signalID" value="957"/>
        </lane>
        <lane id=":532_1_1" index="1" disallow="pedestrian tram rail_urban rail rail_electric rail_fast ship" speed="13.89" length="46.64" width="3.50" shape="102.90,-4.47 102.58,42.17">
            <param key="signalID" value="957"/>
        </lane>
    </edge>
    <edge id=":532_3" function="internal">
        <lane id=":532_3_0" index="0" disallow="pedestrian tram rail_urban rail rail_electric rail_fast ship" speed="13.89" length="46.64" width="3.50" shape="109.58,42.21 109.90,-4.43">
            <param key="signalID" value="959 958 958"/>
        </lane>
        <lane id=":532_3_1" index="1" disallow="pedestrian tram rail_urban rail rail_electric rail_fast ship" speed="13.89" length="46.64" width="3.50" shape="106.08,42.19 106.40,-4.45">
            <param key="signalID" value="959 958 958"/>
        </lane>
    </edge>
    <edge id=":532_5" function="internal">
        <lane id=":532_5_0" index="0" disallow="pedestrian tram rail_urban rail rail_electric rail_fast ship" speed="13.43" length="7.46" width="3.50" shape="106.08,42.19 105.27,34.77">
            <param key="signalID" value="958 957 958"/>
        </lane>
        <lane id=":532_5_1" index="1" disallow="pedestrian tram rail_urban rail rail_electric rail_fast ship" speed="12.97" length="6.58" width="3.50" shape="106.08,42.19 105.27,35.66">
            <param key="signalID" value="958 957 958"/>
        </lane>
    </edge>
    <edge id=":532_11" function="internal">
        <lane id=":532_11_0" index="0" disallow="pedestrian tram rail_urban rail rail_electric rail_fast ship" speed="13.43" length="34.45" width="3.50" shape="105.27,34.77 104.71,29.62 100.43,20.64 93.21,15.24 83.08,13.41">
            <param key="signalID" value="958 957 958"/>
        </lane>
    </edge>
    <edge id=":532_12" function="internal">
        <lane id=":532_12_0" index="0" disallow="pedestrian tram rail_urban rail rail_electric rail_fast ship" speed="12.97" length="32.41" width="3.50" shape="105.27,35.66 104.70,31.16 100.41,23.27 93.20,18.52 83.07,16.91">
            <param key="signalID" value="958 957 958"/>
        </lane>
    </edge>
    <edge id=":532_7" function="internal">
        <lane id=":532_7_0" index="0" disallow="pedestrian tram rail_urban rail rail_electric rail_fast ship" speed="10.27" length="24.05" width="3.50" shape="83.03,28.41 90.09,29.29 95.11,31.87 98.11,36.15 99.08,42.14"/>
        <lane id=":532_7_1" index="1" disallow="pedestrian tram rail_urban rail rail_electric rail_fast ship" speed="10.86" length="27.02" width="3.50" shape="83.03,28.41 91.62,29.29 97.74,31.88 101.39,36.17 102.58,42.17"/>
    </edge>
    <edge id=":532_9" function="internal">
        <lane id=":532_9_0" index="0" disallow="pedestrian tram rail_urban rail rail_electric rail_fast ship" speed="13.89" length="45.28" width="3.50" shape="83.04,24.91 94.72,23.11 103.08,17.62 108.14,8.44 109.90,-4.43">
            <param key="signalID" value="959 959"/>
        </lane>
        <lane id=":532_9_1" index="1" disallow="pedestrian tram rail_urban rail rail_electric rail_fast ship" speed="13.57" length="42.57" width="3.50" shape="83.04,24.91 93.19,23.10 100.46,17.61 104.86,8.42 106.40,-4.45">
            <param key="signalID" value="959 959"/>
        </lane>
    </edge>
    <edge id=":664_0" function="internal">
        <lane id=":664_0_0" index="0" disallow="pedestrian tram rail_urban rail rail_electric rail_fast ship" speed="9.68" length="21.07" width="3.50" shape="99.00,53.22 98.16,58.98 95.70,63.08 91.65,65.54 85.98,66.36"/>
    </edge>
    <edge id=":664_1" function="internal">
        <lane id=":664_1_0" index="0" disallow="pedestrian tram rail_urban rail rail_electric rail_fast ship" speed="13.89" length="29.67" width="3.50" shape="99.00,53.22 98.80,82.89"/>
        <lane id=":664_1_1" index="1" disallow="pedestrian tram rail_urban rail rail_electric rail_fast ship" speed="13.89" length="29.67" width="3.50" shape="102.50,53.25 102.30,82.91"/>
    </edge>
    <edge id=":664_3" function="internal">
        <lane id=":664_3_0" index="0" disallow="pedestrian tram rail_urban rail rail_electric rail_fast ship" speed="13.89" length="29.67" width="3.50" shape="109.30,82.96 109.50,53.29"/>
        <lane id=":664_3_1" index="1" disallow="pedestrian tram rail_urban rail rail_electric rail_fast ship" speed="13.89" length="29.67" width="3.50" shape="105.80,82.94 106.00,53.27"/>
    </edge>
    <edge id=":664_5" function="internal">
        <lane id=":664_5_0" index="0" disallow="pedestrian tram rail_urban rail rail_electric rail_fast ship" speed="9.60" length="20.88" width="3.50" shape="85.98,69.86 91.62,70.68 95.64,73.12 98.03,77.20 98.80,82.89"/>
    </edge>
    <edge id=":7.17_0" function="internal">
        <lane id=":7.17_0_0" index="0" disallow="pedestrian tram rail_urban rail rail_electric rail_fast ship" speed="13.89" length="0.10" width="3.50" shape="-5.27,-68.05 -5.27,-68.05"/>
        <lane id=":7.17_0_1" index="1" disallow="pedestrian tram rail_urban rail rail_electric rail_fast ship" speed="13.89" length="0.10" width="3.50" shape="-5.30,-64.55 -5.30,-64.55"/>
    </edge>
    <edge id=":7.17_2" function="internal">
        <lane id=":7.17_2_0" index="0" disallow="pedestrian tram rail_urban rail rail_electric rail_fast ship" speed="13.89" length="0.10" width="3.50" shape="-5.38,-57.55 -5.38,-57.55"/>
        <lane id=":7.17_2_1" index="1" disallow="pedestrian tram rail_urban rail rail_electric rail_fast ship" speed="13.89" length="0.10" width="3.50" shape="-5.34,-61.05 -5.34,-61.05"/>
    </edge>
    <edge id=":719_0" function="internal">